* NGSPICE file created from ztfc.ext - technology: sky130A

* Black-box entry subcircuit for sky130_fd_sc_hd__tapvpwrvgnd_1 abstract view
.subckt sky130_fd_sc_hd__tapvpwrvgnd_1 VGND VPWR
.ends

* Black-box entry subcircuit for sky130_fd_sc_hd__fill_1 abstract view
.subckt sky130_fd_sc_hd__fill_1 VGND VNB VPB VPWR
.ends

* Black-box entry subcircuit for sky130_fd_sc_hd__fill_2 abstract view
.subckt sky130_fd_sc_hd__fill_2 VGND VNB VPB VPWR
.ends

* Black-box entry subcircuit for sky130_ef_sc_hd__decap_12 abstract view
.subckt sky130_ef_sc_hd__decap_12 VPWR VGND VPB VNB
.ends

* Black-box entry subcircuit for sky130_fd_sc_hd__decap_3 abstract view
.subckt sky130_fd_sc_hd__decap_3 VGND VNB VPB VPWR
.ends

* Black-box entry subcircuit for sky130_fd_sc_hd__decap_4 abstract view
.subckt sky130_fd_sc_hd__decap_4 VGND VNB VPB VPWR
.ends

* Black-box entry subcircuit for sky130_fd_sc_hd__dfxtp_2 abstract view
.subckt sky130_fd_sc_hd__dfxtp_2 CLK D VGND VNB VPB VPWR Q
.ends

* Black-box entry subcircuit for sky130_fd_sc_hd__decap_6 abstract view
.subckt sky130_fd_sc_hd__decap_6 VGND VNB VPB VPWR
.ends

* Black-box entry subcircuit for sky130_fd_sc_hd__o21ai_2 abstract view
.subckt sky130_fd_sc_hd__o21ai_2 A1 A2 B1 VGND VNB VPB VPWR Y
.ends

* Black-box entry subcircuit for sky130_fd_sc_hd__inv_2 abstract view
.subckt sky130_fd_sc_hd__inv_2 A VGND VNB VPB VPWR Y
.ends

* Black-box entry subcircuit for sky130_fd_sc_hd__decap_8 abstract view
.subckt sky130_fd_sc_hd__decap_8 VGND VNB VPB VPWR
.ends

* Black-box entry subcircuit for sky130_fd_sc_hd__diode_2 abstract view
.subckt sky130_fd_sc_hd__diode_2 DIODE VGND VNB VPB VPWR
.ends

* Black-box entry subcircuit for sky130_fd_sc_hd__buf_1 abstract view
.subckt sky130_fd_sc_hd__buf_1 A VGND VNB VPB VPWR X
.ends

* Black-box entry subcircuit for sky130_fd_sc_hd__dfxtp_4 abstract view
.subckt sky130_fd_sc_hd__dfxtp_4 CLK D VGND VNB VPB VPWR Q
.ends

* Black-box entry subcircuit for sky130_fd_sc_hd__clkbuf_2 abstract view
.subckt sky130_fd_sc_hd__clkbuf_2 A VGND VNB VPB VPWR X
.ends

* Black-box entry subcircuit for sky130_fd_sc_hd__nor2_1 abstract view
.subckt sky130_fd_sc_hd__nor2_1 A B VGND VNB VPB VPWR Y
.ends

* Black-box entry subcircuit for sky130_fd_sc_hd__o21ai_1 abstract view
.subckt sky130_fd_sc_hd__o21ai_1 A1 A2 B1 VGND VNB VPB VPWR Y
.ends

* Black-box entry subcircuit for sky130_fd_sc_hd__clkbuf_8 abstract view
.subckt sky130_fd_sc_hd__clkbuf_8 A VGND VNB VPB VPWR X
.ends

* Black-box entry subcircuit for sky130_fd_sc_hd__bufinv_16 abstract view
.subckt sky130_fd_sc_hd__bufinv_16 A VGND VNB VPB VPWR Y
.ends

* Black-box entry subcircuit for sky130_fd_sc_hd__and3_1 abstract view
.subckt sky130_fd_sc_hd__and3_1 A B C VGND VNB VPB VPWR X
.ends

* Black-box entry subcircuit for sky130_fd_sc_hd__dfxtp_1 abstract view
.subckt sky130_fd_sc_hd__dfxtp_1 CLK D VGND VNB VPB VPWR Q
.ends

* Black-box entry subcircuit for sky130_fd_sc_hd__clkinvlp_2 abstract view
.subckt sky130_fd_sc_hd__clkinvlp_2 A VGND VNB VPB VPWR Y
.ends

* Black-box entry subcircuit for sky130_fd_sc_hd__a21oi_4 abstract view
.subckt sky130_fd_sc_hd__a21oi_4 A1 A2 B1 VGND VNB VPB VPWR Y
.ends

* Black-box entry subcircuit for sky130_fd_sc_hd__and2b_1 abstract view
.subckt sky130_fd_sc_hd__and2b_1 A_N B VGND VNB VPB VPWR X
.ends

* Black-box entry subcircuit for sky130_fd_sc_hd__and3b_2 abstract view
.subckt sky130_fd_sc_hd__and3b_2 A_N B C VGND VNB VPB VPWR X
.ends

* Black-box entry subcircuit for sky130_fd_sc_hd__clkinv_1 abstract view
.subckt sky130_fd_sc_hd__clkinv_1 A VGND VNB VPB VPWR Y
.ends

* Black-box entry subcircuit for sky130_fd_sc_hd__a21oi_2 abstract view
.subckt sky130_fd_sc_hd__a21oi_2 A1 A2 B1 VGND VNB VPB VPWR Y
.ends

* Black-box entry subcircuit for sky130_fd_sc_hd__a21o_1 abstract view
.subckt sky130_fd_sc_hd__a21o_1 A1 A2 B1 VGND VNB VPB VPWR X
.ends

* Black-box entry subcircuit for sky130_fd_sc_hd__a221oi_4 abstract view
.subckt sky130_fd_sc_hd__a221oi_4 A1 A2 B1 B2 C1 VGND VNB VPB VPWR Y
.ends

* Black-box entry subcircuit for sky130_fd_sc_hd__clkbuf_16 abstract view
.subckt sky130_fd_sc_hd__clkbuf_16 A VGND VNB VPB VPWR X
.ends

* Black-box entry subcircuit for sky130_fd_sc_hd__or2_2 abstract view
.subckt sky130_fd_sc_hd__or2_2 A B VGND VNB VPB VPWR X
.ends

* Black-box entry subcircuit for sky130_fd_sc_hd__o31a_1 abstract view
.subckt sky130_fd_sc_hd__o31a_1 A1 A2 A3 B1 VGND VNB VPB VPWR X
.ends

* Black-box entry subcircuit for sky130_fd_sc_hd__or2_1 abstract view
.subckt sky130_fd_sc_hd__or2_1 A B VGND VNB VPB VPWR X
.ends

* Black-box entry subcircuit for sky130_fd_sc_hd__and3_2 abstract view
.subckt sky130_fd_sc_hd__and3_2 A B C VGND VNB VPB VPWR X
.ends

* Black-box entry subcircuit for sky130_fd_sc_hd__a21bo_1 abstract view
.subckt sky130_fd_sc_hd__a21bo_1 A1 A2 B1_N VGND VNB VPB VPWR X
.ends

* Black-box entry subcircuit for sky130_fd_sc_hd__o21a_1 abstract view
.subckt sky130_fd_sc_hd__o21a_1 A1 A2 B1 VGND VNB VPB VPWR X
.ends

* Black-box entry subcircuit for sky130_fd_sc_hd__and4_4 abstract view
.subckt sky130_fd_sc_hd__and4_4 A B C D VGND VNB VPB VPWR X
.ends

* Black-box entry subcircuit for sky130_fd_sc_hd__nor2_2 abstract view
.subckt sky130_fd_sc_hd__nor2_2 A B VGND VNB VPB VPWR Y
.ends

* Black-box entry subcircuit for sky130_fd_sc_hd__and2_1 abstract view
.subckt sky130_fd_sc_hd__and2_1 A B VGND VNB VPB VPWR X
.ends

* Black-box entry subcircuit for sky130_fd_sc_hd__and4b_4 abstract view
.subckt sky130_fd_sc_hd__and4b_4 A_N B C D VGND VNB VPB VPWR X
.ends

* Black-box entry subcircuit for sky130_fd_sc_hd__clkbuf_4 abstract view
.subckt sky130_fd_sc_hd__clkbuf_4 A VGND VNB VPB VPWR X
.ends

* Black-box entry subcircuit for sky130_fd_sc_hd__and2_4 abstract view
.subckt sky130_fd_sc_hd__and2_4 A B VGND VNB VPB VPWR X
.ends

* Black-box entry subcircuit for sky130_fd_sc_hd__and4_2 abstract view
.subckt sky130_fd_sc_hd__and4_2 A B C D VGND VNB VPB VPWR X
.ends

* Black-box entry subcircuit for sky130_fd_sc_hd__and3_4 abstract view
.subckt sky130_fd_sc_hd__and3_4 A B C VGND VNB VPB VPWR X
.ends

* Black-box entry subcircuit for sky130_fd_sc_hd__conb_1 abstract view
.subckt sky130_fd_sc_hd__conb_1 VGND VNB VPB VPWR HI LO
.ends

* Black-box entry subcircuit for sky130_fd_sc_hd__and4bb_1 abstract view
.subckt sky130_fd_sc_hd__and4bb_1 A_N B_N C D VGND VNB VPB VPWR X
.ends

* Black-box entry subcircuit for sky130_fd_sc_hd__buf_2 abstract view
.subckt sky130_fd_sc_hd__buf_2 A VGND VNB VPB VPWR X
.ends

* Black-box entry subcircuit for sky130_fd_sc_hd__and3b_1 abstract view
.subckt sky130_fd_sc_hd__and3b_1 A_N B C VGND VNB VPB VPWR X
.ends

* Black-box entry subcircuit for sky130_fd_sc_hd__a21boi_2 abstract view
.subckt sky130_fd_sc_hd__a21boi_2 A1 A2 B1_N VGND VNB VPB VPWR Y
.ends

* Black-box entry subcircuit for sky130_fd_sc_hd__a31o_1 abstract view
.subckt sky130_fd_sc_hd__a31o_1 A1 A2 A3 B1 VGND VNB VPB VPWR X
.ends

* Black-box entry subcircuit for sky130_fd_sc_hd__clkbuf_1 abstract view
.subckt sky130_fd_sc_hd__clkbuf_1 A VGND VNB VPB VPWR X
.ends

* Black-box entry subcircuit for sky130_fd_sc_hd__and2_2 abstract view
.subckt sky130_fd_sc_hd__and2_2 A B VGND VNB VPB VPWR X
.ends

* Black-box entry subcircuit for sky130_fd_sc_hd__nand2_1 abstract view
.subckt sky130_fd_sc_hd__nand2_1 A B VGND VNB VPB VPWR Y
.ends

* Black-box entry subcircuit for sky130_fd_sc_hd__nand3_4 abstract view
.subckt sky130_fd_sc_hd__nand3_4 A B C VGND VNB VPB VPWR Y
.ends

* Black-box entry subcircuit for sky130_fd_sc_hd__a21boi_1 abstract view
.subckt sky130_fd_sc_hd__a21boi_1 A1 A2 B1_N VGND VNB VPB VPWR Y
.ends

* Black-box entry subcircuit for sky130_fd_sc_hd__o21ai_4 abstract view
.subckt sky130_fd_sc_hd__o21ai_4 A1 A2 B1 VGND VNB VPB VPWR Y
.ends

* Black-box entry subcircuit for sky130_fd_sc_hd__nor3b_2 abstract view
.subckt sky130_fd_sc_hd__nor3b_2 A B C_N VGND VNB VPB VPWR Y
.ends

* Black-box entry subcircuit for sky130_fd_sc_hd__buf_4 abstract view
.subckt sky130_fd_sc_hd__buf_4 A VGND VNB VPB VPWR X
.ends

* Black-box entry subcircuit for sky130_fd_sc_hd__o221a_1 abstract view
.subckt sky130_fd_sc_hd__o221a_1 A1 A2 B1 B2 C1 VGND VNB VPB VPWR X
.ends

* Black-box entry subcircuit for sky130_fd_sc_hd__and4_1 abstract view
.subckt sky130_fd_sc_hd__and4_1 A B C D VGND VNB VPB VPWR X
.ends

* Black-box entry subcircuit for sky130_fd_sc_hd__dlymetal6s2s_1 abstract view
.subckt sky130_fd_sc_hd__dlymetal6s2s_1 A VGND VNB VPB VPWR X
.ends

* Black-box entry subcircuit for sky130_fd_sc_hd__nor3_2 abstract view
.subckt sky130_fd_sc_hd__nor3_2 A B C VGND VNB VPB VPWR Y
.ends

* Black-box entry subcircuit for sky130_fd_sc_hd__or4_4 abstract view
.subckt sky130_fd_sc_hd__or4_4 A B C D VGND VNB VPB VPWR X
.ends

* Black-box entry subcircuit for sky130_fd_sc_hd__and4b_2 abstract view
.subckt sky130_fd_sc_hd__and4b_2 A_N B C D VGND VNB VPB VPWR X
.ends

* Black-box entry subcircuit for sky130_fd_sc_hd__a21oi_1 abstract view
.subckt sky130_fd_sc_hd__a21oi_1 A1 A2 B1 VGND VNB VPB VPWR Y
.ends

* Black-box entry subcircuit for sky130_fd_sc_hd__o211a_1 abstract view
.subckt sky130_fd_sc_hd__o211a_1 A1 A2 B1 C1 VGND VNB VPB VPWR X
.ends

.subckt ztfc VGND VPWR an0 clk rst seg_out[0] seg_out[1] seg_out[2] seg_out[3] seg_out[4]
+ seg_out[5] seg_out[6]
XTAP_TAPCELL_ROW_37_401 VGND VPWR sky130_fd_sc_hd__tapvpwrvgnd_1
XFILLER_0_57_391 VGND VGND VPWR VPWR sky130_fd_sc_hd__fill_1
XFILLER_0_43_81 VGND VGND VPWR VPWR sky130_fd_sc_hd__fill_1
XFILLER_0_17_233 VGND VGND VPWR VPWR sky130_fd_sc_hd__fill_2
XFILLER_0_7_81 VPWR VGND VPWR VGND sky130_ef_sc_hd__decap_12
XFILLER_0_4_193 VGND VGND VPWR VPWR sky130_fd_sc_hd__decap_3
XFILLER_0_63_361 VPWR VGND VPWR VGND sky130_ef_sc_hd__decap_12
XFILLER_0_23_225 VPWR VGND VPWR VGND sky130_ef_sc_hd__decap_12
XFILLER_0_48_15 VPWR VGND VPWR VGND sky130_ef_sc_hd__decap_12
XFILLER_0_64_69 VPWR VGND VPWR VGND sky130_ef_sc_hd__decap_12
XFILLER_0_3_39 VPWR VGND VPWR VGND sky130_ef_sc_hd__decap_12
XFILLER_0_58_177 VPWR VGND VPWR VGND sky130_ef_sc_hd__decap_12
XFILLER_0_39_391 VGND VGND VPWR VPWR sky130_fd_sc_hd__fill_1
XFILLER_0_13_51 VGND VGND VPWR VPWR sky130_fd_sc_hd__decap_4
XFILLER_0_64_169 VPWR VGND VPWR VGND sky130_ef_sc_hd__decap_12
XFILLER_0_64_125 VPWR VGND VPWR VGND sky130_ef_sc_hd__decap_12
XFILLER_0_52_309 VPWR VGND VPWR VGND sky130_ef_sc_hd__decap_12
XTAP_TAPCELL_ROW_40_418 VGND VPWR sky130_fd_sc_hd__tapvpwrvgnd_1
XFILLER_0_37_317 VPWR VGND VPWR VGND sky130_ef_sc_hd__decap_12
XTAP_TAPCELL_ROW_5_173 VGND VPWR sky130_fd_sc_hd__tapvpwrvgnd_1
XFILLER_0_18_29 VPWR VGND VPWR VGND sky130_ef_sc_hd__decap_12
XFILLER_0_55_125 VPWR VGND VPWR VGND sky130_ef_sc_hd__decap_12
XFILLER_0_50_27 VGND VGND VPWR VPWR sky130_fd_sc_hd__fill_1
X_277_ clknet_2_1__leaf_clk _027_ VGND VGND VPWR VPWR a.one_second_counter\[23\] sky130_fd_sc_hd__dfxtp_2
XFILLER_0_55_169 VPWR VGND VPWR VGND sky130_ef_sc_hd__decap_12
XFILLER_0_11_217 VGND VGND VPWR VPWR sky130_fd_sc_hd__decap_6
XFILLER_0_59_69 VGND VGND VPWR VPWR sky130_fd_sc_hd__decap_6
XTAP_TAPCELL_ROW_19_275 VGND VPWR sky130_fd_sc_hd__tapvpwrvgnd_1
XTAP_TAPCELL_ROW_62_576 VGND VPWR sky130_fd_sc_hd__tapvpwrvgnd_1
XFILLER_0_34_309 VPWR VGND VPWR VGND sky130_ef_sc_hd__decap_12
XFILLER_0_27_361 VPWR VGND VPWR VGND sky130_ef_sc_hd__decap_12
XFILLER_0_6_233 VPWR VGND VPWR VGND sky130_ef_sc_hd__decap_12
XFILLER_0_24_83 VGND VGND VPWR VPWR sky130_fd_sc_hd__fill_1
XTAP_TAPCELL_ROW_2_154 VGND VPWR sky130_fd_sc_hd__tapvpwrvgnd_1
XTAP_TAPCELL_ROW_53_510 VGND VPWR sky130_fd_sc_hd__tapvpwrvgnd_1
XFILLER_0_37_125 VPWR VGND VPWR VGND sky130_ef_sc_hd__decap_12
X_200_ a.one_second_counter\[10\] _062_ _057_ VGND VGND VPWR VPWR _066_ sky130_fd_sc_hd__o21ai_2
XFILLER_0_52_139 VGND VGND VPWR VPWR sky130_fd_sc_hd__fill_1
XFILLER_0_37_169 VPWR VGND VPWR VGND sky130_ef_sc_hd__decap_12
X_131_ a.count\[0\] VGND VGND VPWR VPWR _104_ sky130_fd_sc_hd__inv_2
XFILLER_0_29_39 VPWR VGND VPWR VGND sky130_ef_sc_hd__decap_12
XFILLER_0_61_15 VPWR VGND VPWR VGND sky130_ef_sc_hd__decap_12
XFILLER_0_45_27 VPWR VGND VPWR VGND sky130_ef_sc_hd__decap_12
XFILLER_0_0_29 VPWR VGND VPWR VGND sky130_ef_sc_hd__decap_12
XFILLER_0_16_309 VPWR VGND VPWR VGND sky130_ef_sc_hd__decap_12
XFILLER_0_3_225 VPWR VGND VPWR VGND sky130_ef_sc_hd__decap_12
XFILLER_0_10_41 VPWR VGND VPWR VGND sky130_ef_sc_hd__decap_12
XFILLER_0_10_85 VPWR VGND VPWR VGND sky130_ef_sc_hd__decap_12
XFILLER_0_35_93 VPWR VGND VPWR VGND sky130_ef_sc_hd__decap_12
XFILLER_0_19_125 VPWR VGND VPWR VGND sky130_ef_sc_hd__decap_12
XFILLER_0_51_81 VPWR VGND VPWR VGND sky130_ef_sc_hd__decap_12
XFILLER_0_34_139 VGND VGND VPWR VPWR sky130_fd_sc_hd__fill_1
XFILLER_0_30_301 VGND VGND VPWR VPWR sky130_fd_sc_hd__decap_6
XFILLER_0_19_169 VPWR VGND VPWR VGND sky130_ef_sc_hd__decap_12
XFILLER_0_30_345 VPWR VGND VPWR VGND sky130_ef_sc_hd__decap_12
XFILLER_0_56_15 VPWR VGND VPWR VGND sky130_ef_sc_hd__decap_12
XFILLER_0_48_209 VGND VGND VPWR VPWR sky130_fd_sc_hd__fill_2
XFILLER_0_56_253 VPWR VGND VPWR VGND sky130_ef_sc_hd__decap_12
XFILLER_0_12_301 VGND VGND VPWR VPWR sky130_fd_sc_hd__decap_6
XFILLER_0_16_139 VGND VGND VPWR VPWR sky130_fd_sc_hd__fill_1
XFILLER_0_21_51 VGND VGND VPWR VPWR sky130_fd_sc_hd__decap_4
XFILLER_0_12_345 VPWR VGND VPWR VGND sky130_ef_sc_hd__decap_12
XFILLER_0_12_389 VPWR VGND VPWR VGND sky130_ef_sc_hd__decap_12
XFILLER_0_34_3 VPWR VGND VPWR VGND sky130_ef_sc_hd__decap_12
XTAP_TAPCELL_ROW_27_329 VGND VPWR sky130_fd_sc_hd__tapvpwrvgnd_1
XTAP_TAPCELL_ROW_35_384 VGND VPWR sky130_fd_sc_hd__tapvpwrvgnd_1
XTAP_TAPCELL_ROW_10_207 VGND VPWR sky130_fd_sc_hd__tapvpwrvgnd_1
XFILLER_0_62_289 VPWR VGND VPWR VGND sky130_ef_sc_hd__decap_12
XFILLER_0_62_245 VGND VGND VPWR VPWR sky130_fd_sc_hd__decap_6
XFILLER_0_30_164 VGND VGND VPWR VPWR sky130_fd_sc_hd__decap_8
XFILLER_0_30_153 VGND VGND VPWR VPWR sky130_fd_sc_hd__decap_6
XFILLER_0_30_120 VPWR VGND VPWR VGND sky130_ef_sc_hd__decap_12
XFILLER_0_7_361 VPWR VGND VPWR VGND sky130_ef_sc_hd__decap_12
XFILLER_0_15_161 VGND VGND VPWR VPWR sky130_fd_sc_hd__decap_6
XFILLER_0_22_109 VPWR VGND VPWR VGND sky130_ef_sc_hd__decap_12
XFILLER_0_30_197 VPWR VGND VPWR VGND sky130_ef_sc_hd__decap_12
XFILLER_0_30_186 VGND VGND VPWR VPWR sky130_fd_sc_hd__decap_8
XFILLER_0_26_29 VPWR VGND VPWR VGND sky130_ef_sc_hd__decap_12
XFILLER_0_53_223 VGND VGND VPWR VPWR sky130_fd_sc_hd__fill_1
XFILLER_0_38_253 VPWR VGND VPWR VGND sky130_ef_sc_hd__decap_12
XANTENNA_5 _008_ VGND VGND VPWR VPWR sky130_fd_sc_hd__diode_2
XTAP_TAPCELL_ROW_32_365 VGND VPWR sky130_fd_sc_hd__tapvpwrvgnd_1
XFILLER_0_32_83 VGND VGND VPWR VPWR sky130_fd_sc_hd__fill_1
XFILLER_0_29_286 VPWR VGND VPWR VGND sky130_ef_sc_hd__decap_12
XFILLER_0_44_289 VPWR VGND VPWR VGND sky130_ef_sc_hd__decap_12
XFILLER_0_44_245 VGND VGND VPWR VPWR sky130_fd_sc_hd__decap_6
XFILLER_0_12_131 VGND VGND VPWR VPWR sky130_fd_sc_hd__decap_8
XFILLER_0_12_153 VPWR VGND VPWR VGND sky130_ef_sc_hd__decap_12
XFILLER_0_12_197 VPWR VGND VPWR VGND sky130_ef_sc_hd__decap_12
Xoutput7 net7 VGND VGND VPWR VPWR seg_out[5] sky130_fd_sc_hd__buf_1
XFILLER_0_53_27 VPWR VGND VPWR VGND sky130_ef_sc_hd__decap_12
XFILLER_0_41_237 VPWR VGND VPWR VGND sky130_ef_sc_hd__decap_12
XFILLER_0_26_245 VGND VGND VPWR VPWR sky130_fd_sc_hd__decap_6
XFILLER_0_26_289 VPWR VGND VPWR VGND sky130_ef_sc_hd__decap_12
XFILLER_0_49_337 VPWR VGND VPWR VGND sky130_ef_sc_hd__decap_12
XTAP_TAPCELL_ROW_37_402 VGND VPWR sky130_fd_sc_hd__tapvpwrvgnd_1
XFILLER_0_17_223 VGND VGND VPWR VPWR sky130_fd_sc_hd__fill_1
XFILLER_0_7_93 VPWR VGND VPWR VGND sky130_ef_sc_hd__decap_12
XFILLER_0_4_161 VPWR VGND VPWR VGND sky130_ef_sc_hd__decap_12
XTAP_TAPCELL_ROW_43_438 VGND VPWR sky130_fd_sc_hd__tapvpwrvgnd_1
XFILLER_0_63_373 VPWR VGND VPWR VGND sky130_ef_sc_hd__decap_12
XFILLER_0_2_109 VPWR VGND VPWR VGND sky130_ef_sc_hd__decap_12
XFILLER_0_23_237 VPWR VGND VPWR VGND sky130_ef_sc_hd__decap_12
XFILLER_0_48_27 VGND VGND VPWR VPWR sky130_fd_sc_hd__fill_1
XFILLER_0_31_281 VPWR VGND VPWR VGND sky130_ef_sc_hd__decap_12
XTAP_TAPCELL_ROW_8_193 VGND VPWR sky130_fd_sc_hd__tapvpwrvgnd_1
XFILLER_0_64_15 VPWR VGND VPWR VGND sky130_ef_sc_hd__decap_12
XFILLER_0_58_189 VGND VGND VPWR VPWR sky130_fd_sc_hd__decap_6
XFILLER_0_46_307 VGND VGND VPWR VPWR sky130_fd_sc_hd__fill_1
XFILLER_0_49_167 VGND VGND VPWR VPWR sky130_fd_sc_hd__fill_1
XFILLER_0_49_101 VGND VGND VPWR VPWR sky130_fd_sc_hd__decap_8
XFILLER_0_37_329 VGND VGND VPWR VPWR sky130_fd_sc_hd__decap_6
XPHY_EDGE_ROW_19_Left_84 VGND VGND VPWR VPWR sky130_fd_sc_hd__decap_3
XFILLER_0_64_137 VGND VGND VPWR VPWR sky130_fd_sc_hd__decap_3
XFILLER_0_60_365 VPWR VGND VPWR VGND sky130_ef_sc_hd__decap_12
XFILLER_0_60_321 VPWR VGND VPWR VGND sky130_ef_sc_hd__decap_12
XTAP_TAPCELL_ROW_40_419 VGND VPWR sky130_fd_sc_hd__tapvpwrvgnd_1
XFILLER_0_13_281 VPWR VGND VPWR VGND sky130_ef_sc_hd__decap_12
XTAP_TAPCELL_ROW_56_530 VGND VPWR sky130_fd_sc_hd__tapvpwrvgnd_1
XFILLER_0_34_29 VPWR VGND VPWR VGND sky130_ef_sc_hd__decap_12
XTAP_TAPCELL_ROW_5_174 VGND VPWR sky130_fd_sc_hd__tapvpwrvgnd_1
X_276_ clknet_2_1__leaf_clk _026_ VGND VGND VPWR VPWR a.one_second_counter\[22\] sky130_fd_sc_hd__dfxtp_4
XFILLER_0_55_137 VGND VGND VPWR VPWR sky130_fd_sc_hd__decap_3
XFILLER_0_63_181 VPWR VGND VPWR VGND sky130_ef_sc_hd__decap_12
XFILLER_0_59_26 VPWR VGND VPWR VGND sky130_ef_sc_hd__decap_12
XFILLER_0_59_15 VGND VGND VPWR VPWR sky130_fd_sc_hd__decap_4
XFILLER_0_19_307 VPWR VGND VPWR VGND sky130_ef_sc_hd__decap_12
XTAP_TAPCELL_ROW_19_276 VGND VPWR sky130_fd_sc_hd__tapvpwrvgnd_1
XFILLER_0_24_51 VPWR VGND VPWR VGND sky130_ef_sc_hd__decap_12
XTAP_TAPCELL_ROW_62_577 VGND VPWR sky130_fd_sc_hd__tapvpwrvgnd_1
XFILLER_0_61_129 VPWR VGND VPWR VGND sky130_ef_sc_hd__decap_12
XFILLER_0_42_365 VPWR VGND VPWR VGND sky130_ef_sc_hd__decap_12
XFILLER_0_42_321 VPWR VGND VPWR VGND sky130_ef_sc_hd__decap_12
XFILLER_0_40_83 VGND VGND VPWR VPWR sky130_fd_sc_hd__fill_1
XFILLER_0_27_373 VPWR VGND VPWR VGND sky130_ef_sc_hd__decap_12
XFILLER_0_6_245 VGND VGND VPWR VPWR sky130_fd_sc_hd__decap_6
XFILLER_0_6_278 VPWR VGND VPWR VGND sky130_ef_sc_hd__decap_12
XFILLER_0_64_3 VPWR VGND VPWR VGND sky130_ef_sc_hd__decap_12
XFILLER_0_10_251 VGND VGND VPWR VPWR sky130_fd_sc_hd__fill_1
XPHY_EDGE_ROW_12_Right_12 VGND VGND VPWR VPWR sky130_fd_sc_hd__decap_3
XFILLER_0_4_83 VGND VGND VPWR VPWR sky130_fd_sc_hd__fill_1
XTAP_TAPCELL_ROW_2_155 VGND VPWR sky130_fd_sc_hd__tapvpwrvgnd_1
XPHY_EDGE_ROW_21_Right_21 VGND VGND VPWR VPWR sky130_fd_sc_hd__decap_3
XTAP_TAPCELL_ROW_53_511 VGND VPWR sky130_fd_sc_hd__tapvpwrvgnd_1
XFILLER_0_37_137 VPWR VGND VPWR VGND sky130_ef_sc_hd__decap_12
X_130_ _103_ VGND VGND VPWR VPWR net5 sky130_fd_sc_hd__clkbuf_2
XPHY_EDGE_ROW_4_Left_69 VGND VGND VPWR VPWR sky130_fd_sc_hd__decap_3
XFILLER_0_60_195 VGND VGND VPWR VPWR sky130_fd_sc_hd__fill_1
XFILLER_0_45_181 VPWR VGND VPWR VGND sky130_ef_sc_hd__decap_12
XFILLER_0_33_310 VPWR VGND VPWR VGND sky130_ef_sc_hd__decap_12
XPHY_EDGE_ROW_30_Right_30 VGND VGND VPWR VPWR sky130_fd_sc_hd__decap_3
XFILLER_0_61_27 VPWR VGND VPWR VGND sky130_ef_sc_hd__decap_12
XFILLER_0_45_39 VPWR VGND VPWR VGND sky130_ef_sc_hd__decap_12
X_259_ clknet_2_1__leaf_clk _009_ VGND VGND VPWR VPWR a.one_second_counter\[5\] sky130_fd_sc_hd__dfxtp_2
XFILLER_0_43_129 VPWR VGND VPWR VGND sky130_ef_sc_hd__decap_12
XFILLER_0_24_321 VPWR VGND VPWR VGND sky130_ef_sc_hd__decap_12
XFILLER_0_3_237 VPWR VGND VPWR VGND sky130_ef_sc_hd__decap_12
XFILLER_0_10_53 VPWR VGND VPWR VGND sky130_ef_sc_hd__decap_12
XFILLER_0_10_97 VPWR VGND VPWR VGND sky130_ef_sc_hd__decap_12
XFILLER_0_24_365 VPWR VGND VPWR VGND sky130_ef_sc_hd__decap_12
XFILLER_0_19_51 VGND VGND VPWR VPWR sky130_fd_sc_hd__decap_4
XFILLER_0_19_137 VPWR VGND VPWR VGND sky130_ef_sc_hd__decap_12
XFILLER_0_51_93 VPWR VGND VPWR VGND sky130_ef_sc_hd__decap_12
XFILLER_0_42_195 VGND VGND VPWR VPWR sky130_fd_sc_hd__fill_1
XFILLER_0_27_181 VPWR VGND VPWR VGND sky130_ef_sc_hd__decap_12
XFILLER_0_30_357 VGND VGND VPWR VPWR sky130_fd_sc_hd__decap_6
XFILLER_0_53_405 VGND VGND VPWR VPWR sky130_fd_sc_hd__fill_2
XFILLER_0_21_335 VGND VGND VPWR VPWR sky130_fd_sc_hd__fill_1
XFILLER_0_56_27 VGND VGND VPWR VPWR sky130_fd_sc_hd__fill_1
XFILLER_0_56_265 VGND VGND VPWR VPWR sky130_fd_sc_hd__decap_6
XFILLER_0_56_221 VPWR VGND VPWR VGND sky130_ef_sc_hd__decap_12
XFILLER_0_8_307 VGND VGND VPWR VPWR sky130_fd_sc_hd__fill_1
XFILLER_0_24_195 VGND VGND VPWR VPWR sky130_fd_sc_hd__fill_1
XFILLER_0_12_357 VGND VGND VPWR VPWR sky130_fd_sc_hd__decap_6
XFILLER_0_27_3 VPWR VGND VPWR VGND sky130_ef_sc_hd__decap_12
XFILLER_0_35_405 VGND VGND VPWR VPWR sky130_fd_sc_hd__fill_2
XTAP_TAPCELL_ROW_35_385 VGND VPWR sky130_fd_sc_hd__tapvpwrvgnd_1
XFILLER_0_7_373 VPWR VGND VPWR VGND sky130_ef_sc_hd__decap_12
XTAP_TAPCELL_ROW_10_208 VGND VPWR sky130_fd_sc_hd__tapvpwrvgnd_1
XFILLER_0_30_176 VGND VGND VPWR VPWR sky130_fd_sc_hd__fill_2
XFILLER_0_30_132 VGND VGND VPWR VPWR sky130_fd_sc_hd__decap_8
XFILLER_0_42_29 VPWR VGND VPWR VGND sky130_ef_sc_hd__decap_12
XFILLER_0_38_265 VPWR VGND VPWR VGND sky130_ef_sc_hd__decap_12
XFILLER_0_38_221 VGND VGND VPWR VPWR sky130_fd_sc_hd__fill_2
XANTENNA_6 _009_ VGND VGND VPWR VPWR sky130_fd_sc_hd__diode_2
XPHY_EDGE_ROW_7_Left_72 VGND VGND VPWR VPWR sky130_fd_sc_hd__decap_3
XFILLER_0_6_29 VPWR VGND VPWR VGND sky130_ef_sc_hd__decap_12
XFILLER_0_16_41 VPWR VGND VPWR VGND sky130_ef_sc_hd__decap_12
XFILLER_0_16_85 VPWR VGND VPWR VGND sky130_ef_sc_hd__decap_12
XTAP_TAPCELL_ROW_32_366 VGND VPWR sky130_fd_sc_hd__tapvpwrvgnd_1
XFILLER_0_29_298 VPWR VGND VPWR VGND sky130_ef_sc_hd__decap_12
XFILLER_0_17_405 VGND VGND VPWR VPWR sky130_fd_sc_hd__fill_2
XFILLER_0_4_365 VPWR VGND VPWR VGND sky130_ef_sc_hd__decap_12
XFILLER_0_4_321 VPWR VGND VPWR VGND sky130_ef_sc_hd__decap_12
XPHY_EDGE_ROW_6_Right_6 VGND VGND VPWR VPWR sky130_fd_sc_hd__decap_3
XFILLER_0_12_165 VPWR VGND VPWR VGND sky130_ef_sc_hd__decap_12
XFILLER_0_57_81 VPWR VGND VPWR VGND sky130_ef_sc_hd__decap_12
XTAP_TAPCELL_ROW_23_300 VGND VPWR sky130_fd_sc_hd__tapvpwrvgnd_1
XFILLER_0_35_279 VGND VGND VPWR VPWR sky130_fd_sc_hd__fill_1
XFILLER_0_7_181 VPWR VGND VPWR VGND sky130_ef_sc_hd__decap_12
XPHY_EDGE_ROW_33_Left_98 VGND VGND VPWR VPWR sky130_fd_sc_hd__decap_3
Xoutput8 net8 VGND VGND VPWR VPWR seg_out[6] sky130_fd_sc_hd__buf_1
XFILLER_0_53_39 VPWR VGND VPWR VGND sky130_ef_sc_hd__decap_12
XPHY_EDGE_ROW_59_Right_59 VGND VGND VPWR VPWR sky130_fd_sc_hd__decap_3
XFILLER_0_41_249 VPWR VGND VPWR VGND sky130_ef_sc_hd__decap_12
XFILLER_0_41_205 VPWR VGND VPWR VGND sky130_ef_sc_hd__decap_12
XFILLER_0_1_335 VGND VGND VPWR VPWR sky130_fd_sc_hd__fill_1
XFILLER_0_27_51 VGND VGND VPWR VPWR sky130_fd_sc_hd__decap_4
XFILLER_0_49_349 VPWR VGND VPWR VGND sky130_ef_sc_hd__decap_12
XFILLER_0_49_305 VPWR VGND VPWR VGND sky130_ef_sc_hd__decap_12
XFILLER_0_57_393 VPWR VGND VPWR VGND sky130_ef_sc_hd__decap_12
XFILLER_0_32_205 VPWR VGND VPWR VGND sky130_ef_sc_hd__decap_12
XFILLER_0_4_173 VPWR VGND VPWR VGND sky130_ef_sc_hd__decap_12
XTAP_TAPCELL_ROW_43_439 VGND VPWR sky130_fd_sc_hd__tapvpwrvgnd_1
XFILLER_0_63_385 VGND VGND VPWR VPWR sky130_fd_sc_hd__decap_6
XTAP_TAPCELL_ROW_51_494 VGND VPWR sky130_fd_sc_hd__tapvpwrvgnd_1
XFILLER_0_23_205 VPWR VGND VPWR VGND sky130_ef_sc_hd__decap_12
XFILLER_0_23_249 VPWR VGND VPWR VGND sky130_ef_sc_hd__decap_12
XFILLER_0_64_27 VGND VGND VPWR VPWR sky130_fd_sc_hd__fill_1
XFILLER_0_31_293 VPWR VGND VPWR VGND sky130_ef_sc_hd__decap_12
XTAP_TAPCELL_ROW_8_194 VGND VPWR sky130_fd_sc_hd__tapvpwrvgnd_1
XTAP_TAPCELL_ROW_59_550 VGND VPWR sky130_fd_sc_hd__tapvpwrvgnd_1
XFILLER_0_54_363 VGND VGND VPWR VPWR sky130_fd_sc_hd__fill_1
XFILLER_0_39_393 VPWR VGND VPWR VGND sky130_ef_sc_hd__decap_12
XFILLER_0_14_216 VGND VGND VPWR VPWR sky130_fd_sc_hd__fill_2
XFILLER_0_1_110 VGND VGND VPWR VPWR sky130_fd_sc_hd__fill_2
XFILLER_0_38_83 VGND VGND VPWR VPWR sky130_fd_sc_hd__fill_1
XFILLER_0_49_113 VPWR VGND VPWR VGND sky130_ef_sc_hd__decap_12
XFILLER_0_60_377 VPWR VGND VPWR VGND sky130_ef_sc_hd__decap_12
XFILLER_0_60_333 VPWR VGND VPWR VGND sky130_ef_sc_hd__decap_12
XFILLER_0_13_260 VPWR VGND VPWR VGND sky130_ef_sc_hd__decap_12
XFILLER_0_13_293 VPWR VGND VPWR VGND sky130_ef_sc_hd__decap_12
XTAP_TAPCELL_ROW_56_531 VGND VPWR sky130_fd_sc_hd__tapvpwrvgnd_1
XTAP_TAPCELL_ROW_5_175 VGND VPWR sky130_fd_sc_hd__tapvpwrvgnd_1
XFILLER_0_55_105 VGND VGND VPWR VPWR sky130_fd_sc_hd__decap_6
XFILLER_0_50_29 VPWR VGND VPWR VGND sky130_ef_sc_hd__decap_12
XFILLER_0_36_363 VGND VGND VPWR VPWR sky130_fd_sc_hd__fill_1
X_275_ clknet_2_0__leaf_clk _025_ VGND VGND VPWR VPWR a.one_second_counter\[21\] sky130_fd_sc_hd__dfxtp_2
XFILLER_0_63_193 VPWR VGND VPWR VGND sky130_ef_sc_hd__decap_12
XFILLER_0_59_38 VPWR VGND VPWR VGND sky130_ef_sc_hd__decap_12
XFILLER_0_46_138 VGND VGND VPWR VPWR sky130_fd_sc_hd__fill_2
XPHY_EDGE_ROW_20_Left_85 VGND VGND VPWR VPWR sky130_fd_sc_hd__decap_3
XFILLER_0_19_319 VPWR VGND VPWR VGND sky130_ef_sc_hd__decap_12
XFILLER_0_24_63 VPWR VGND VPWR VGND sky130_ef_sc_hd__decap_12
XFILLER_0_24_85 VPWR VGND VPWR VGND sky130_ef_sc_hd__decap_12
XFILLER_0_42_377 VPWR VGND VPWR VGND sky130_ef_sc_hd__decap_12
XFILLER_0_42_333 VPWR VGND VPWR VGND sky130_ef_sc_hd__decap_12
XFILLER_0_27_385 VGND VGND VPWR VPWR sky130_fd_sc_hd__decap_6
XFILLER_0_57_3 VPWR VGND VPWR VGND sky130_ef_sc_hd__decap_12
XTAP_TAPCELL_ROW_53_512 VGND VPWR sky130_fd_sc_hd__tapvpwrvgnd_1
XTAP_TAPCELL_ROW_2_156 VGND VPWR sky130_fd_sc_hd__tapvpwrvgnd_1
XFILLER_0_37_149 VPWR VGND VPWR VGND sky130_ef_sc_hd__decap_12
XFILLER_0_33_322 VPWR VGND VPWR VGND sky130_ef_sc_hd__decap_12
XFILLER_0_18_363 VGND VGND VPWR VPWR sky130_fd_sc_hd__fill_1
XFILLER_0_60_141 VPWR VGND VPWR VGND sky130_ef_sc_hd__decap_12
XFILLER_0_45_193 VPWR VGND VPWR VGND sky130_ef_sc_hd__decap_12
XFILLER_0_61_39 VPWR VGND VPWR VGND sky130_ef_sc_hd__decap_12
X_189_ _115_ _058_ VGND VGND VPWR VPWR _010_ sky130_fd_sc_hd__nor2_1
X_258_ clknet_2_0__leaf_clk _008_ VGND VGND VPWR VPWR a.one_second_counter\[4\] sky130_fd_sc_hd__dfxtp_2
XFILLER_0_3_249 VPWR VGND VPWR VGND sky130_ef_sc_hd__decap_12
XFILLER_0_3_205 VPWR VGND VPWR VGND sky130_ef_sc_hd__decap_12
XFILLER_0_24_333 VPWR VGND VPWR VGND sky130_ef_sc_hd__decap_12
XFILLER_0_24_377 VPWR VGND VPWR VGND sky130_ef_sc_hd__decap_12
XFILLER_0_51_185 VPWR VGND VPWR VGND sky130_ef_sc_hd__decap_12
XFILLER_0_10_65 VPWR VGND VPWR VGND sky130_ef_sc_hd__decap_12
XFILLER_0_35_51 VGND VGND VPWR VPWR sky130_fd_sc_hd__decap_4
XFILLER_0_19_105 VGND VGND VPWR VPWR sky130_fd_sc_hd__decap_6
XFILLER_0_19_149 VPWR VGND VPWR VGND sky130_ef_sc_hd__decap_12
XFILLER_0_42_141 VPWR VGND VPWR VGND sky130_ef_sc_hd__decap_12
XFILLER_0_27_193 VPWR VGND VPWR VGND sky130_ef_sc_hd__decap_12
XTAP_TAPCELL_ROW_13_228 VGND VPWR sky130_fd_sc_hd__tapvpwrvgnd_1
XFILLER_0_56_288 VPWR VGND VPWR VGND sky130_ef_sc_hd__decap_12
XFILLER_0_56_233 VPWR VGND VPWR VGND sky130_ef_sc_hd__decap_12
XFILLER_0_24_141 VPWR VGND VPWR VGND sky130_ef_sc_hd__decap_12
XFILLER_0_46_83 VGND VGND VPWR VPWR sky130_fd_sc_hd__fill_1
XTAP_TAPCELL_ROW_35_386 VGND VPWR sky130_fd_sc_hd__tapvpwrvgnd_1
XFILLER_0_7_385 VGND VGND VPWR VPWR sky130_fd_sc_hd__decap_6
XTAP_TAPCELL_ROW_10_209 VGND VPWR sky130_fd_sc_hd__tapvpwrvgnd_1
XPHY_EDGE_ROW_42_Left_107 VGND VGND VPWR VPWR sky130_fd_sc_hd__decap_3
XFILLER_0_11_391 VGND VGND VPWR VPWR sky130_fd_sc_hd__fill_1
XPHY_EDGE_ROW_51_Left_116 VGND VGND VPWR VPWR sky130_fd_sc_hd__decap_3
XFILLER_0_38_277 VPWR VGND VPWR VGND sky130_ef_sc_hd__decap_12
XTAP_TAPCELL_ROW_26_320 VGND VPWR sky130_fd_sc_hd__tapvpwrvgnd_1
XFILLER_0_53_269 VGND VGND VPWR VPWR sky130_fd_sc_hd__fill_2
XFILLER_0_53_225 VPWR VGND VPWR VGND sky130_ef_sc_hd__decap_12
XANTENNA_7 _015_ VGND VGND VPWR VPWR sky130_fd_sc_hd__diode_2
XFILLER_0_21_111 VGND VGND VPWR VPWR sky130_fd_sc_hd__fill_1
XPHY_EDGE_ROW_60_Left_125 VGND VGND VPWR VPWR sky130_fd_sc_hd__decap_3
XFILLER_0_16_53 VPWR VGND VPWR VGND sky130_ef_sc_hd__decap_12
XFILLER_0_16_97 VPWR VGND VPWR VGND sky130_ef_sc_hd__decap_12
XTAP_TAPCELL_ROW_32_367 VGND VPWR sky130_fd_sc_hd__tapvpwrvgnd_1
XFILLER_0_32_85 VPWR VGND VPWR VGND sky130_ef_sc_hd__decap_12
XFILLER_0_32_41 VPWR VGND VPWR VGND sky130_ef_sc_hd__decap_12
XFILLER_0_29_277 VGND VGND VPWR VPWR sky130_fd_sc_hd__decap_3
XFILLER_0_4_333 VPWR VGND VPWR VGND sky130_ef_sc_hd__decap_12
XFILLER_0_4_377 VPWR VGND VPWR VGND sky130_ef_sc_hd__decap_12
XFILLER_0_12_177 VPWR VGND VPWR VGND sky130_ef_sc_hd__decap_12
XFILLER_0_57_93 VPWR VGND VPWR VGND sky130_ef_sc_hd__decap_12
XTAP_TAPCELL_ROW_23_301 VGND VPWR sky130_fd_sc_hd__tapvpwrvgnd_1
XFILLER_0_50_206 VPWR VGND VPWR VGND sky130_ef_sc_hd__decap_12
XFILLER_0_35_225 VPWR VGND VPWR VGND sky130_ef_sc_hd__decap_12
XFILLER_0_7_193 VPWR VGND VPWR VGND sky130_ef_sc_hd__decap_12
XTAP_TAPCELL_ROW_46_459 VGND VPWR sky130_fd_sc_hd__tapvpwrvgnd_1
XFILLER_0_41_217 VGND VGND VPWR VPWR sky130_fd_sc_hd__decap_6
XFILLER_0_27_85 VGND VGND VPWR VPWR sky130_fd_sc_hd__fill_1
XFILLER_0_27_96 VPWR VGND VPWR VGND sky130_ef_sc_hd__decap_12
XFILLER_0_64_309 VPWR VGND VPWR VGND sky130_ef_sc_hd__decap_12
XFILLER_0_57_361 VPWR VGND VPWR VGND sky130_ef_sc_hd__decap_12
XFILLER_0_49_317 VPWR VGND VPWR VGND sky130_ef_sc_hd__decap_12
XFILLER_0_32_217 VPWR VGND VPWR VGND sky130_ef_sc_hd__decap_12
XFILLER_0_4_185 VGND VGND VPWR VPWR sky130_fd_sc_hd__decap_8
XFILLER_0_4_141 VPWR VGND VPWR VGND sky130_ef_sc_hd__decap_12
XFILLER_0_17_225 VGND VGND VPWR VPWR sky130_fd_sc_hd__decap_8
XTAP_TAPCELL_ROW_51_495 VGND VPWR sky130_fd_sc_hd__tapvpwrvgnd_1
XFILLER_0_48_29 VPWR VGND VPWR VGND sky130_ef_sc_hd__decap_12
XFILLER_0_31_261 VPWR VGND VPWR VGND sky130_ef_sc_hd__decap_12
XFILLER_0_23_217 VGND VGND VPWR VPWR sky130_fd_sc_hd__decap_6
XTAP_TAPCELL_ROW_59_551 VGND VPWR sky130_fd_sc_hd__tapvpwrvgnd_1
XTAP_TAPCELL_ROW_8_195 VGND VPWR sky130_fd_sc_hd__tapvpwrvgnd_1
XFILLER_0_39_361 VPWR VGND VPWR VGND sky130_ef_sc_hd__decap_12
XFILLER_0_54_83 VGND VGND VPWR VPWR sky130_fd_sc_hd__fill_1
XFILLER_0_49_169 VPWR VGND VPWR VGND sky130_ef_sc_hd__decap_12
XFILLER_0_49_125 VPWR VGND VPWR VGND sky130_ef_sc_hd__decap_12
XFILLER_0_60_389 VPWR VGND VPWR VGND sky130_ef_sc_hd__decap_12
XFILLER_0_60_345 VPWR VGND VPWR VGND sky130_ef_sc_hd__decap_12
XFILLER_0_60_301 VGND VGND VPWR VPWR sky130_fd_sc_hd__decap_6