* NGSPICE file created from main.ext - technology: sky130A

* Black-box entry subcircuit for sky130_fd_sc_hd__tapvpwrvgnd_1 abstract view
.subckt sky130_fd_sc_hd__tapvpwrvgnd_1 VGND VPWR
.ends

* Black-box entry subcircuit for sky130_fd_sc_hd__nor2_1 abstract view
.subckt sky130_fd_sc_hd__nor2_1 A B VGND VNB VPB VPWR Y
.ends

* Black-box entry subcircuit for sky130_fd_sc_hd__decap_4 abstract view
.subckt sky130_fd_sc_hd__decap_4 VGND VNB VPB VPWR
.ends

* Black-box entry subcircuit for sky130_ef_sc_hd__decap_12 abstract view
.subckt sky130_ef_sc_hd__decap_12 VPWR VGND VPB VNB
.ends

* Black-box entry subcircuit for sky130_fd_sc_hd__xnor2_1 abstract view
.subckt sky130_fd_sc_hd__xnor2_1 A B VGND VNB VPB VPWR Y
.ends

* Black-box entry subcircuit for sky130_fd_sc_hd__fill_2 abstract view
.subckt sky130_fd_sc_hd__fill_2 VGND VNB VPB VPWR
.ends

* Black-box entry subcircuit for sky130_fd_sc_hd__a21oi_1 abstract view
.subckt sky130_fd_sc_hd__a21oi_1 A1 A2 B1 VGND VNB VPB VPWR Y
.ends

* Black-box entry subcircuit for sky130_fd_sc_hd__decap_3 abstract view
.subckt sky130_fd_sc_hd__decap_3 VGND VNB VPB VPWR
.ends

* Black-box entry subcircuit for sky130_fd_sc_hd__decap_8 abstract view
.subckt sky130_fd_sc_hd__decap_8 VGND VNB VPB VPWR
.ends

* Black-box entry subcircuit for sky130_fd_sc_hd__fill_1 abstract view
.subckt sky130_fd_sc_hd__fill_1 VGND VNB VPB VPWR
.ends

* Black-box entry subcircuit for sky130_fd_sc_hd__buf_2 abstract view
.subckt sky130_fd_sc_hd__buf_2 A VGND VNB VPB VPWR X
.ends

* Black-box entry subcircuit for sky130_fd_sc_hd__a21o_1 abstract view
.subckt sky130_fd_sc_hd__a21o_1 A1 A2 B1 VGND VNB VPB VPWR X
.ends

* Black-box entry subcircuit for sky130_fd_sc_hd__inv_2 abstract view
.subckt sky130_fd_sc_hd__inv_2 A VGND VNB VPB VPWR Y
.ends

* Black-box entry subcircuit for sky130_fd_sc_hd__o32a_1 abstract view
.subckt sky130_fd_sc_hd__o32a_1 A1 A2 A3 B1 B2 VGND VNB VPB VPWR X
.ends

* Black-box entry subcircuit for sky130_fd_sc_hd__nand2_1 abstract view
.subckt sky130_fd_sc_hd__nand2_1 A B VGND VNB VPB VPWR Y
.ends

* Black-box entry subcircuit for sky130_fd_sc_hd__a31o_1 abstract view
.subckt sky130_fd_sc_hd__a31o_1 A1 A2 A3 B1 VGND VNB VPB VPWR X
.ends

* Black-box entry subcircuit for sky130_fd_sc_hd__and3_1 abstract view
.subckt sky130_fd_sc_hd__and3_1 A B C VGND VNB VPB VPWR X
.ends

* Black-box entry subcircuit for sky130_fd_sc_hd__o211a_1 abstract view
.subckt sky130_fd_sc_hd__o211a_1 A1 A2 B1 C1 VGND VNB VPB VPWR X
.ends

* Black-box entry subcircuit for sky130_fd_sc_hd__a22oi_2 abstract view
.subckt sky130_fd_sc_hd__a22oi_2 A1 A2 B1 B2 VGND VNB VPB VPWR Y
.ends

* Black-box entry subcircuit for sky130_fd_sc_hd__decap_6 abstract view
.subckt sky130_fd_sc_hd__decap_6 VGND VNB VPB VPWR
.ends

* Black-box entry subcircuit for sky130_fd_sc_hd__a311o_1 abstract view
.subckt sky130_fd_sc_hd__a311o_1 A1 A2 A3 B1 C1 VGND VNB VPB VPWR X
.ends

* Black-box entry subcircuit for sky130_fd_sc_hd__xor2_1 abstract view
.subckt sky130_fd_sc_hd__xor2_1 A B VGND VNB VPB VPWR X
.ends

* Black-box entry subcircuit for sky130_fd_sc_hd__a22oi_1 abstract view
.subckt sky130_fd_sc_hd__a22oi_1 A1 A2 B1 B2 VGND VNB VPB VPWR Y
.ends

* Black-box entry subcircuit for sky130_fd_sc_hd__and2_2 abstract view
.subckt sky130_fd_sc_hd__and2_2 A B VGND VNB VPB VPWR X
.ends

* Black-box entry subcircuit for sky130_fd_sc_hd__xnor2_2 abstract view
.subckt sky130_fd_sc_hd__xnor2_2 A B VGND VNB VPB VPWR Y
.ends

* Black-box entry subcircuit for sky130_fd_sc_hd__o22a_1 abstract view
.subckt sky130_fd_sc_hd__o22a_1 A1 A2 B1 B2 VGND VNB VPB VPWR X
.ends

* Black-box entry subcircuit for sky130_fd_sc_hd__a211oi_4 abstract view
.subckt sky130_fd_sc_hd__a211oi_4 A1 A2 B1 C1 VGND VNB VPB VPWR Y
.ends

* Black-box entry subcircuit for sky130_fd_sc_hd__o31a_2 abstract view
.subckt sky130_fd_sc_hd__o31a_2 A1 A2 A3 B1 VGND VNB VPB VPWR X
.ends

* Black-box entry subcircuit for sky130_fd_sc_hd__clkbuf_4 abstract view
.subckt sky130_fd_sc_hd__clkbuf_4 A VGND VNB VPB VPWR X
.ends

* Black-box entry subcircuit for sky130_fd_sc_hd__nor3_2 abstract view
.subckt sky130_fd_sc_hd__nor3_2 A B C VGND VNB VPB VPWR Y
.ends

* Black-box entry subcircuit for sky130_fd_sc_hd__buf_4 abstract view
.subckt sky130_fd_sc_hd__buf_4 A VGND VNB VPB VPWR X
.ends

* Black-box entry subcircuit for sky130_fd_sc_hd__nor2_2 abstract view
.subckt sky130_fd_sc_hd__nor2_2 A B VGND VNB VPB VPWR Y
.ends

* Black-box entry subcircuit for sky130_fd_sc_hd__and4_1 abstract view
.subckt sky130_fd_sc_hd__and4_1 A B C D VGND VNB VPB VPWR X
.ends

* Black-box entry subcircuit for sky130_fd_sc_hd__o2bb2a_1 abstract view
.subckt sky130_fd_sc_hd__o2bb2a_1 A1_N A2_N B1 B2 VGND VNB VPB VPWR X
.ends

* Black-box entry subcircuit for sky130_fd_sc_hd__or3_1 abstract view
.subckt sky130_fd_sc_hd__or3_1 A B C VGND VNB VPB VPWR X
.ends

* Black-box entry subcircuit for sky130_fd_sc_hd__o21a_2 abstract view
.subckt sky130_fd_sc_hd__o21a_2 A1 A2 B1 VGND VNB VPB VPWR X
.ends

* Black-box entry subcircuit for sky130_fd_sc_hd__and3b_1 abstract view
.subckt sky130_fd_sc_hd__and3b_1 A_N B C VGND VNB VPB VPWR X
.ends

* Black-box entry subcircuit for sky130_fd_sc_hd__nor2_4 abstract view
.subckt sky130_fd_sc_hd__nor2_4 A B VGND VNB VPB VPWR Y
.ends

* Black-box entry subcircuit for sky130_fd_sc_hd__or2b_1 abstract view
.subckt sky130_fd_sc_hd__or2b_1 A B_N VGND VNB VPB VPWR X
.ends

* Black-box entry subcircuit for sky130_fd_sc_hd__and3_2 abstract view
.subckt sky130_fd_sc_hd__and3_2 A B C VGND VNB VPB VPWR X
.ends

* Black-box entry subcircuit for sky130_fd_sc_hd__or2b_2 abstract view
.subckt sky130_fd_sc_hd__or2b_2 A B_N VGND VNB VPB VPWR X
.ends

* Black-box entry subcircuit for sky130_fd_sc_hd__or3b_1 abstract view
.subckt sky130_fd_sc_hd__or3b_1 A B C_N VGND VNB VPB VPWR X
.ends

* Black-box entry subcircuit for sky130_fd_sc_hd__nor3_1 abstract view
.subckt sky130_fd_sc_hd__nor3_1 A B C VGND VNB VPB VPWR Y
.ends

* Black-box entry subcircuit for sky130_fd_sc_hd__o21ai_2 abstract view
.subckt sky130_fd_sc_hd__o21ai_2 A1 A2 B1 VGND VNB VPB VPWR Y
.ends

* Black-box entry subcircuit for sky130_fd_sc_hd__buf_1 abstract view
.subckt sky130_fd_sc_hd__buf_1 A VGND VNB VPB VPWR X
.ends

* Black-box entry subcircuit for sky130_fd_sc_hd__or2_2 abstract view
.subckt sky130_fd_sc_hd__or2_2 A B VGND VNB VPB VPWR X
.ends

* Black-box entry subcircuit for sky130_fd_sc_hd__nand2_2 abstract view
.subckt sky130_fd_sc_hd__nand2_2 A B VGND VNB VPB VPWR Y
.ends

* Black-box entry subcircuit for sky130_fd_sc_hd__o31a_1 abstract view
.subckt sky130_fd_sc_hd__o31a_1 A1 A2 A3 B1 VGND VNB VPB VPWR X
.ends

* Black-box entry subcircuit for sky130_fd_sc_hd__clkbuf_2 abstract view
.subckt sky130_fd_sc_hd__clkbuf_2 A VGND VNB VPB VPWR X
.ends

* Black-box entry subcircuit for sky130_fd_sc_hd__a211o_1 abstract view
.subckt sky130_fd_sc_hd__a211o_1 A1 A2 B1 C1 VGND VNB VPB VPWR X
.ends

* Black-box entry subcircuit for sky130_fd_sc_hd__and2b_1 abstract view
.subckt sky130_fd_sc_hd__and2b_1 A_N B VGND VNB VPB VPWR X
.ends

* Black-box entry subcircuit for sky130_fd_sc_hd__o21a_1 abstract view
.subckt sky130_fd_sc_hd__o21a_1 A1 A2 B1 VGND VNB VPB VPWR X
.ends

* Black-box entry subcircuit for sky130_fd_sc_hd__o21ba_1 abstract view
.subckt sky130_fd_sc_hd__o21ba_1 A1 A2 B1_N VGND VNB VPB VPWR X
.ends

* Black-box entry subcircuit for sky130_fd_sc_hd__o21bai_1 abstract view
.subckt sky130_fd_sc_hd__o21bai_1 A1 A2 B1_N VGND VNB VPB VPWR Y
.ends

* Black-box entry subcircuit for sky130_fd_sc_hd__dlymetal6s2s_1 abstract view
.subckt sky130_fd_sc_hd__dlymetal6s2s_1 A VGND VNB VPB VPWR X
.ends

* Black-box entry subcircuit for sky130_fd_sc_hd__a311o_4 abstract view
.subckt sky130_fd_sc_hd__a311o_4 A1 A2 A3 B1 C1 VGND VNB VPB VPWR X
.ends

* Black-box entry subcircuit for sky130_fd_sc_hd__o21ai_1 abstract view
.subckt sky130_fd_sc_hd__o21ai_1 A1 A2 B1 VGND VNB VPB VPWR Y
.ends

* Black-box entry subcircuit for sky130_fd_sc_hd__or2_1 abstract view
.subckt sky130_fd_sc_hd__or2_1 A B VGND VNB VPB VPWR X
.ends

* Black-box entry subcircuit for sky130_fd_sc_hd__xor2_2 abstract view
.subckt sky130_fd_sc_hd__xor2_2 A B VGND VNB VPB VPWR X
.ends

* Black-box entry subcircuit for sky130_fd_sc_hd__a22o_1 abstract view
.subckt sky130_fd_sc_hd__a22o_1 A1 A2 B1 B2 VGND VNB VPB VPWR X
.ends

* Black-box entry subcircuit for sky130_fd_sc_hd__a311oi_4 abstract view
.subckt sky130_fd_sc_hd__a311oi_4 A1 A2 A3 B1 C1 VGND VNB VPB VPWR Y
.ends

* Black-box entry subcircuit for sky130_fd_sc_hd__a31oi_4 abstract view
.subckt sky130_fd_sc_hd__a31oi_4 A1 A2 A3 B1 VGND VNB VPB VPWR Y
.ends

* Black-box entry subcircuit for sky130_fd_sc_hd__and4bb_2 abstract view
.subckt sky130_fd_sc_hd__and4bb_2 A_N B_N C D VGND VNB VPB VPWR X
.ends

* Black-box entry subcircuit for sky130_fd_sc_hd__o21ai_4 abstract view
.subckt sky130_fd_sc_hd__o21ai_4 A1 A2 B1 VGND VNB VPB VPWR Y
.ends

* Black-box entry subcircuit for sky130_fd_sc_hd__dlygate4sd3_1 abstract view
.subckt sky130_fd_sc_hd__dlygate4sd3_1 A VGND VNB VPB VPWR X
.ends

* Black-box entry subcircuit for sky130_fd_sc_hd__o41a_4 abstract view
.subckt sky130_fd_sc_hd__o41a_4 A1 A2 A3 A4 B1 VGND VNB VPB VPWR X
.ends

* Black-box entry subcircuit for sky130_fd_sc_hd__nand3b_4 abstract view
.subckt sky130_fd_sc_hd__nand3b_4 A_N B C VGND VNB VPB VPWR Y
.ends

* Black-box entry subcircuit for sky130_fd_sc_hd__a32o_1 abstract view
.subckt sky130_fd_sc_hd__a32o_1 A1 A2 A3 B1 B2 VGND VNB VPB VPWR X
.ends

* Black-box entry subcircuit for sky130_fd_sc_hd__diode_2 abstract view
.subckt sky130_fd_sc_hd__diode_2 DIODE VGND VNB VPB VPWR
.ends

* Black-box entry subcircuit for sky130_fd_sc_hd__a21boi_1 abstract view
.subckt sky130_fd_sc_hd__a21boi_1 A1 A2 B1_N VGND VNB VPB VPWR Y
.ends

* Black-box entry subcircuit for sky130_fd_sc_hd__nand3_1 abstract view
.subckt sky130_fd_sc_hd__nand3_1 A B C VGND VNB VPB VPWR Y
.ends

* Black-box entry subcircuit for sky130_fd_sc_hd__and2_1 abstract view
.subckt sky130_fd_sc_hd__and2_1 A B VGND VNB VPB VPWR X
.ends

.subckt main A[0] A[1] A[2] A[3] A[4] A[5] A[6] A[7] B[0] B[1] B[2] B[3] B[4] B[5]
+ B[6] B[7] VGND VPWR opcode[0] opcode[1] opcode[2] out[0] out[1] out[2] out[3] out[4]
+ out[5] out[6] out[7]
XTAP_TAPCELL_ROW_24_106 VGND VPWR sky130_fd_sc_hd__tapvpwrvgnd_1
X_294_ _115_ _145_ VGND VGND VPWR VPWR _057_ sky130_fd_sc_hd__nor2_1
XFILLER_0_13_40 VGND VGND VPWR VPWR sky130_fd_sc_hd__decap_4
XFILLER_0_18_29 VPWR VGND VPWR VGND sky130_ef_sc_hd__decap_12
X_277_ net8 net16 VGND VGND VPWR VPWR _042_ sky130_fd_sc_hd__xnor2_1
X_200_ _127_ _119_ VGND VGND VPWR VPWR _128_ sky130_fd_sc_hd__xnor2_1
XFILLER_0_4_82 VGND VGND VPWR VPWR sky130_fd_sc_hd__fill_2
X_329_ net5 _091_ _088_ VGND VGND VPWR VPWR net24 sky130_fd_sc_hd__a21oi_1
XFILLER_0_0_29 VGND VGND VPWR VPWR sky130_fd_sc_hd__decap_4
XFILLER_0_19_103 VGND VGND VPWR VPWR sky130_fd_sc_hd__decap_4
XPHY_EDGE_ROW_8_Left_36 VGND VGND VPWR VPWR sky130_fd_sc_hd__decap_3
XFILLER_0_15_19 VPWR VGND VPWR VGND sky130_ef_sc_hd__decap_12
XFILLER_0_21_95 VGND VGND VPWR VPWR sky130_fd_sc_hd__fill_2
XTAP_TAPCELL_ROW_20_98 VGND VPWR sky130_fd_sc_hd__tapvpwrvgnd_1
XFILLER_0_1_94 VGND VGND VPWR VPWR sky130_fd_sc_hd__decap_8
XFILLER_0_1_61 VPWR VGND VPWR VGND sky130_ef_sc_hd__decap_12
XFILLER_0_1_50 VGND VGND VPWR VPWR sky130_fd_sc_hd__fill_1
XTAP_TAPCELL_ROW_27_115 VGND VPWR sky130_fd_sc_hd__tapvpwrvgnd_1
Xoutput20 net20 VGND VGND VPWR VPWR out[0] sky130_fd_sc_hd__buf_2
XFILLER_0_27_83 VGND VGND VPWR VPWR sky130_fd_sc_hd__fill_1
XFILLER_0_27_61 VGND VGND VPWR VPWR sky130_fd_sc_hd__fill_1
XTAP_TAPCELL_ROW_24_107 VGND VPWR sky130_fd_sc_hd__tapvpwrvgnd_1
XPHY_EDGE_ROW_21_Left_49 VGND VGND VPWR VPWR sky130_fd_sc_hd__decap_3
X_293_ _004_ _091_ _056_ VGND VGND VPWR VPWR net20 sky130_fd_sc_hd__a21o_1
XFILLER_0_13_74 VPWR VGND VPWR VGND sky130_ef_sc_hd__decap_12
X_276_ _040_ VGND VGND VPWR VPWR _041_ sky130_fd_sc_hd__inv_2
XPHY_EDGE_ROW_21_Right_21 VGND VGND VPWR VPWR sky130_fd_sc_hd__decap_3
XPHY_EDGE_ROW_12_Right_12 VGND VGND VPWR VPWR sky130_fd_sc_hd__decap_3
X_328_ _093_ _081_ _087_ VGND VGND VPWR VPWR _088_ sky130_fd_sc_hd__a21oi_1
X_259_ _154_ VGND VGND VPWR VPWR _025_ sky130_fd_sc_hd__inv_2
XPHY_EDGE_ROW_24_Left_52 VGND VGND VPWR VPWR sky130_fd_sc_hd__decap_3
XTAP_TAPCELL_ROW_5_68 VGND VPWR sky130_fd_sc_hd__tapvpwrvgnd_1
XFILLER_0_26_19 VGND VGND VPWR VPWR sky130_fd_sc_hd__decap_8
XTAP_TAPCELL_ROW_20_99 VGND VPWR sky130_fd_sc_hd__tapvpwrvgnd_1
XFILLER_0_1_73 VGND VGND VPWR VPWR sky130_fd_sc_hd__fill_1
XFILLER_0_16_85 VGND VGND VPWR VPWR sky130_fd_sc_hd__fill_1
XPHY_EDGE_ROW_6_Right_6 VGND VGND VPWR VPWR sky130_fd_sc_hd__decap_3
XFILLER_0_8_104 VPWR VGND VPWR VGND sky130_ef_sc_hd__decap_12
XTAP_TAPCELL_ROW_15_88 VGND VPWR sky130_fd_sc_hd__tapvpwrvgnd_1
Xoutput21 net21 VGND VGND VPWR VPWR out[1] sky130_fd_sc_hd__buf_2
X_292_ _143_ _054_ _055_ _114_ _111_ VGND VGND VPWR VPWR _056_ sky130_fd_sc_hd__o32a_1
XFILLER_0_2_9 VGND VGND VPWR VPWR sky130_fd_sc_hd__decap_8
XFILLER_0_3_19 VPWR VGND VPWR VGND sky130_ef_sc_hd__decap_12
XFILLER_0_13_53 VGND VGND VPWR VPWR sky130_fd_sc_hd__decap_3
XFILLER_0_13_86 VPWR VGND VPWR VGND sky130_ef_sc_hd__decap_12
X_275_ net7 _022_ VGND VGND VPWR VPWR _040_ sky130_fd_sc_hd__nand2_1
XFILLER_0_4_95 VPWR VGND VPWR VGND sky130_ef_sc_hd__decap_12
X_327_ _015_ _017_ _083_ _086_ VGND VGND VPWR VPWR _087_ sky130_fd_sc_hd__a31o_1
X_258_ _023_ VGND VGND VPWR VPWR _024_ sky130_fd_sc_hd__inv_2
X_189_ net9 _101_ _115_ VGND VGND VPWR VPWR _117_ sky130_fd_sc_hd__and3_1
XTAP_TAPCELL_ROW_5_69 VGND VPWR sky130_fd_sc_hd__tapvpwrvgnd_1
XFILLER_0_21_75 VGND VGND VPWR VPWR sky130_fd_sc_hd__fill_1
XFILLER_0_21_31 VPWR VGND VPWR VGND sky130_ef_sc_hd__decap_12
XFILLER_0_8_116 VGND VGND VPWR VPWR sky130_fd_sc_hd__decap_3
XTAP_TAPCELL_ROW_15_89 VGND VPWR sky130_fd_sc_hd__tapvpwrvgnd_1
Xoutput22 net22 VGND VGND VPWR VPWR out[2] sky130_fd_sc_hd__buf_2
XFILLER_0_9_3 VGND VGND VPWR VPWR sky130_fd_sc_hd__decap_3
XFILLER_0_27_85 VPWR VGND VPWR VGND sky130_ef_sc_hd__decap_12
XFILLER_0_7_95 VGND VGND VPWR VPWR sky130_fd_sc_hd__decap_8
X_291_ _093_ _141_ _111_ _114_ VGND VGND VPWR VPWR _055_ sky130_fd_sc_hd__o211a_1
XFILLER_0_13_98 VPWR VGND VPWR VGND sky130_ef_sc_hd__decap_12
X_274_ net7 _091_ _029_ _039_ VGND VGND VPWR VPWR net26 sky130_fd_sc_hd__a22oi_2
XFILLER_0_0_7 VGND VGND VPWR VPWR sky130_fd_sc_hd__decap_6
XFILLER_0_24_64 VGND VGND VPWR VPWR sky130_fd_sc_hd__decap_4
XFILLER_0_24_20 VGND VGND VPWR VPWR sky130_fd_sc_hd__decap_8
X_326_ net13 net5 _141_ _085_ _090_ VGND VGND VPWR VPWR _086_ sky130_fd_sc_hd__a311o_1
XFILLER_0_19_53 VGND VGND VPWR VPWR sky130_fd_sc_hd__decap_3
X_188_ _114_ _101_ _115_ VGND VGND VPWR VPWR _116_ sky130_fd_sc_hd__a21o_1
X_257_ net7 _022_ VGND VGND VPWR VPWR _023_ sky130_fd_sc_hd__xor2_1
XFILLER_0_21_43 VPWR VGND VPWR VGND sky130_ef_sc_hd__decap_12
X_309_ _008_ _017_ _067_ _070_ VGND VGND VPWR VPWR _071_ sky130_fd_sc_hd__a31o_1
XFILLER_0_1_42 VGND VGND VPWR VPWR sky130_fd_sc_hd__decap_8
XFILLER_0_16_10 VPWR VGND VPWR VGND sky130_ef_sc_hd__decap_12
Xoutput23 net23 VGND VGND VPWR VPWR out[3] sky130_fd_sc_hd__buf_2
XFILLER_0_27_97 VPWR VGND VPWR VGND sky130_ef_sc_hd__decap_12
XFILLER_0_27_75 VGND VGND VPWR VPWR sky130_fd_sc_hd__decap_8
XFILLER_0_27_53 VGND VGND VPWR VPWR sky130_fd_sc_hd__decap_3
X_290_ _111_ _114_ _018_ _145_ VGND VGND VPWR VPWR _054_ sky130_fd_sc_hd__a22oi_1
XFILLER_0_13_44 VGND VGND VPWR VPWR sky130_fd_sc_hd__fill_1
X_273_ _093_ _035_ _038_ VGND VGND VPWR VPWR _039_ sky130_fd_sc_hd__a21oi_1
XFILLER_0_24_76 VGND VGND VPWR VPWR sky130_fd_sc_hd__decap_4
X_187_ net2 net10 VGND VGND VPWR VPWR _115_ sky130_fd_sc_hd__and2_2
X_256_ net15 _021_ VGND VGND VPWR VPWR _022_ sky130_fd_sc_hd__xnor2_2
XFILLER_0_10_45 VPWR VGND VPWR VGND sky130_ef_sc_hd__decap_12
XFILLER_0_10_89 VPWR VGND VPWR VGND sky130_ef_sc_hd__decap_12
X_325_ net13 net5 _143_ _084_ VGND VGND VPWR VPWR _085_ sky130_fd_sc_hd__o22a_1
XFILLER_0_19_107 VGND VGND VPWR VPWR sky130_fd_sc_hd__fill_1
X_308_ _101_ _099_ _141_ _069_ _090_ VGND VGND VPWR VPWR _070_ sky130_fd_sc_hd__a311o_1
XFILLER_0_21_55 VGND VGND VPWR VPWR sky130_fd_sc_hd__fill_1
X_239_ _004_ _114_ _003_ _005_ VGND VGND VPWR VPWR _006_ sky130_fd_sc_hd__a211oi_4
XFILLER_0_21_113 VGND VGND VPWR VPWR sky130_fd_sc_hd__decap_6
XTAP_TAPCELL_ROW_6_70 VGND VPWR sky130_fd_sc_hd__tapvpwrvgnd_1
XFILLER_0_16_22 VGND VGND VPWR VPWR sky130_fd_sc_hd__decap_6
Xoutput24 net24 VGND VGND VPWR VPWR out[4] sky130_fd_sc_hd__buf_2
XPHY_EDGE_ROW_19_Right_19 VGND VGND VPWR VPWR sky130_fd_sc_hd__decap_3
XFILLER_0_11_9 VPWR VGND VPWR VGND sky130_ef_sc_hd__decap_12
XPHY_EDGE_ROW_15_Left_43 VGND VGND VPWR VPWR sky130_fd_sc_hd__decap_3
XTAP_TAPCELL_ROW_16_90 VGND VPWR sky130_fd_sc_hd__tapvpwrvgnd_1
XFILLER_0_1_113 VPWR VGND VPWR VGND sky130_ef_sc_hd__decap_12
XFILLER_0_1_102 VGND VGND VPWR VPWR sky130_fd_sc_hd__decap_3
XPHY_EDGE_ROW_0_Left_28 VGND VGND VPWR VPWR sky130_fd_sc_hd__decap_3
X_272_ net7 net15 _141_ _037_ _090_ VGND VGND VPWR VPWR _038_ sky130_fd_sc_hd__a311o_1
X_255_ net14 net13 _151_ _150_ VGND VGND VPWR VPWR _021_ sky130_fd_sc_hd__o31a_2
X_324_ net13 net5 _145_ VGND VGND VPWR VPWR _084_ sky130_fd_sc_hd__a21oi_1
XFILLER_0_10_35 VGND VGND VPWR VPWR sky130_fd_sc_hd__fill_1
XFILLER_0_10_57 VGND VGND VPWR VPWR sky130_fd_sc_hd__fill_2
X_186_ net9 VGND VGND VPWR VPWR _114_ sky130_fd_sc_hd__clkbuf_4
XPHY_EDGE_ROW_3_Left_31 VGND VGND VPWR VPWR sky130_fd_sc_hd__decap_3
X_169_ net10 VGND VGND VPWR VPWR _097_ sky130_fd_sc_hd__clkbuf_4
X_238_ net2 _001_ _002_ VGND VGND VPWR VPWR _005_ sky130_fd_sc_hd__nor3_2
X_307_ _101_ _099_ _143_ _068_ VGND VGND VPWR VPWR _069_ sky130_fd_sc_hd__o22a_1
XFILLER_0_1_55 VGND VGND VPWR VPWR sky130_fd_sc_hd__fill_1
XFILLER_0_15_111 VGND VGND VPWR VPWR sky130_fd_sc_hd__fill_1
XTAP_TAPCELL_ROW_6_71 VGND VPWR sky130_fd_sc_hd__tapvpwrvgnd_1
XFILLER_0_18_3 VPWR VGND VPWR VGND sky130_ef_sc_hd__decap_12
XFILLER_0_12_103 VGND VGND VPWR VPWR sky130_fd_sc_hd__decap_8
Xoutput25 net25 VGND VGND VPWR VPWR out[5] sky130_fd_sc_hd__buf_4
XFILLER_0_4_111 VGND VGND VPWR VPWR sky130_fd_sc_hd__decap_6
XFILLER_0_7_76 VGND VGND VPWR VPWR sky130_fd_sc_hd__decap_6
XFILLER_0_7_3 VGND VGND VPWR VPWR sky130_fd_sc_hd__fill_2
XTAP_TAPCELL_ROW_16_91 VGND VPWR sky130_fd_sc_hd__tapvpwrvgnd_1
XFILLER_0_13_57 VPWR VGND VPWR VGND sky130_ef_sc_hd__decap_12
X_271_ net7 net15 _143_ _036_ VGND VGND VPWR VPWR _037_ sky130_fd_sc_hd__o22a_1
X_254_ net6 _091_ _149_ _020_ VGND VGND VPWR VPWR net25 sky130_fd_sc_hd__a22oi_2
X_185_ _100_ _112_ VGND VGND VPWR VPWR _113_ sky130_fd_sc_hd__nor2_2
X_323_ _014_ _082_ VGND VGND VPWR VPWR _083_ sky130_fd_sc_hd__nand2_1
XFILLER_0_21_57 VPWR VGND VPWR VGND sky130_ef_sc_hd__decap_12
X_306_ _101_ _099_ _145_ VGND VGND VPWR VPWR _068_ sky130_fd_sc_hd__a21oi_1
X_168_ net9 net10 net3 net4 VGND VGND VPWR VPWR _096_ sky130_fd_sc_hd__and4_1
X_237_ net1 VGND VGND VPWR VPWR _004_ sky130_fd_sc_hd__inv_2
XFILLER_0_21_104 VGND VGND VPWR VPWR sky130_fd_sc_hd__decap_8
XTAP_TAPCELL_ROW_26_110 VGND VPWR sky130_fd_sc_hd__tapvpwrvgnd_1
XPHY_EDGE_ROW_1_Right_1 VGND VGND VPWR VPWR sky130_fd_sc_hd__decap_3
Xoutput26 net26 VGND VGND VPWR VPWR out[6] sky130_fd_sc_hd__buf_2
XFILLER_0_27_45 VGND VGND VPWR VPWR sky130_fd_sc_hd__decap_8
XFILLER_0_27_12 VPWR VGND VPWR VGND sky130_ef_sc_hd__decap_12
XFILLER_0_13_69 VGND VGND VPWR VPWR sky130_fd_sc_hd__fill_2
X_270_ net7 net15 _145_ VGND VGND VPWR VPWR _036_ sky130_fd_sc_hd__a21oi_1
XFILLER_0_24_68 VGND VGND VPWR VPWR sky130_fd_sc_hd__fill_1
XFILLER_0_24_57 VGND VGND VPWR VPWR sky130_fd_sc_hd__decap_3
XFILLER_0_24_35 VGND VGND VPWR VPWR sky130_fd_sc_hd__fill_1
XFILLER_0_4_34 VPWR VGND VPWR VGND sky130_ef_sc_hd__decap_12
X_322_ _000_ _008_ _011_ _012_ VGND VGND VPWR VPWR _082_ sky130_fd_sc_hd__a31o_1
XFILLER_0_19_57 VPWR VGND VPWR VGND sky130_ef_sc_hd__decap_12
X_184_ net2 _099_ _096_ _098_ VGND VGND VPWR VPWR _112_ sky130_fd_sc_hd__o2bb2a_1
XFILLER_0_10_15 VPWR VGND VPWR VGND sky130_ef_sc_hd__decap_12
X_253_ _016_ _018_ _019_ VGND VGND VPWR VPWR _020_ sky130_fd_sc_hd__or3_1
X_167_ net2 _094_ VGND VGND VPWR VPWR _095_ sky130_fd_sc_hd__nand2_1
X_236_ _001_ _002_ net2 VGND VGND VPWR VPWR _003_ sky130_fd_sc_hd__o21a_2
XFILLER_0_24_124 VGND VGND VPWR VPWR sky130_fd_sc_hd__fill_1
XFILLER_0_21_69 VGND VGND VPWR VPWR sky130_fd_sc_hd__decap_6
X_305_ _007_ _003_ net28 VGND VGND VPWR VPWR _067_ sky130_fd_sc_hd__or3_1
XFILLER_0_11_80 VGND VGND VPWR VPWR sky130_fd_sc_hd__fill_2
XFILLER_0_15_113 VPWR VGND VPWR VGND sky130_ef_sc_hd__decap_12
X_219_ net6 net14 _143_ _146_ VGND VGND VPWR VPWR _147_ sky130_fd_sc_hd__o22a_1
XTAP_TAPCELL_ROW_26_111 VGND VPWR sky130_fd_sc_hd__tapvpwrvgnd_1
Xoutput27 net27 VGND VGND VPWR VPWR out[7] sky130_fd_sc_hd__buf_2
XFILLER_0_27_57 VGND VGND VPWR VPWR sky130_fd_sc_hd__decap_4
XFILLER_0_27_24 VGND VGND VPWR VPWR sky130_fd_sc_hd__decap_4
XPHY_EDGE_ROW_24_Right_24 VGND VGND VPWR VPWR sky130_fd_sc_hd__decap_3
XFILLER_0_4_124 VGND VGND VPWR VPWR sky130_fd_sc_hd__fill_1
XFILLER_0_7_12 VGND VGND VPWR VPWR sky130_fd_sc_hd__decap_4
XPHY_EDGE_ROW_15_Right_15 VGND VGND VPWR VPWR sky130_fd_sc_hd__decap_3
XPHY_EDGE_ROW_19_Left_47 VGND VGND VPWR VPWR sky130_fd_sc_hd__decap_3
XFILLER_0_24_47 VGND VGND VPWR VPWR sky130_fd_sc_hd__decap_3
XFILLER_0_4_46 VPWR VGND VPWR VGND sky130_ef_sc_hd__decap_12
X_183_ net1 VGND VGND VPWR VPWR _111_ sky130_fd_sc_hd__clkbuf_4
XFILLER_0_19_69 VPWR VGND VPWR VGND sky130_ef_sc_hd__decap_12
X_321_ _122_ _129_ VGND VGND VPWR VPWR _081_ sky130_fd_sc_hd__xor2_1
X_252_ _158_ _015_ _156_ VGND VGND VPWR VPWR _019_ sky130_fd_sc_hd__a21oi_1
XFILLER_0_10_27 VGND VGND VPWR VPWR sky130_fd_sc_hd__fill_1
X_235_ net9 _150_ _097_ VGND VGND VPWR VPWR _002_ sky130_fd_sc_hd__a21oi_1
X_304_ _126_ _093_ _065_ VGND VGND VPWR VPWR _066_ sky130_fd_sc_hd__and3b_1
X_166_ net12 VGND VGND VPWR VPWR _094_ sky130_fd_sc_hd__clkbuf_4
XPHY_EDGE_ROW_7_Left_35 VGND VGND VPWR VPWR sky130_fd_sc_hd__decap_3
X_218_ net6 net14 _145_ VGND VGND VPWR VPWR _146_ sky130_fd_sc_hd__a21oi_1
XFILLER_0_12_117 VGND VGND VPWR VPWR sky130_fd_sc_hd__decap_4
XFILLER_0_25_7 VPWR VGND VPWR VGND sky130_ef_sc_hd__decap_12
XFILLER_0_7_122 VGND VGND VPWR VPWR sky130_fd_sc_hd__decap_3
XFILLER_0_7_24 VPWR VGND VPWR VGND sky130_ef_sc_hd__decap_12
XFILLER_0_7_57 VGND VGND VPWR VPWR sky130_fd_sc_hd__fill_2
XTAP_TAPCELL_ROW_23_104 VGND VPWR sky130_fd_sc_hd__tapvpwrvgnd_1
XFILLER_0_13_16 VPWR VGND VPWR VGND sky130_ef_sc_hd__decap_12
XTAP_TAPCELL_ROW_3_64 VGND VPWR sky130_fd_sc_hd__tapvpwrvgnd_1
XFILLER_0_24_15 VGND VGND VPWR VPWR sky130_fd_sc_hd__fill_1
XPHY_EDGE_ROW_20_Left_48 VGND VGND VPWR VPWR sky130_fd_sc_hd__decap_3
XFILLER_0_5_3 VGND VGND VPWR VPWR sky130_fd_sc_hd__fill_1
XFILLER_0_4_58 VPWR VGND VPWR VGND sky130_ef_sc_hd__decap_12
XTAP_TAPCELL_ROW_13_84 VGND VPWR sky130_fd_sc_hd__tapvpwrvgnd_1
XFILLER_0_14_81 VGND VGND VPWR VPWR sky130_fd_sc_hd__decap_3
XFILLER_0_14_92 VPWR VGND VPWR VGND sky130_ef_sc_hd__decap_12
X_320_ _103_ _091_ _080_ VGND VGND VPWR VPWR net23 sky130_fd_sc_hd__a21oi_1
XFILLER_0_19_15 VPWR VGND VPWR VGND sky130_ef_sc_hd__decap_12
X_182_ _095_ _109_ VGND VGND VPWR VPWR _110_ sky130_fd_sc_hd__xnor2_2
X_251_ _017_ VGND VGND VPWR VPWR _018_ sky130_fd_sc_hd__inv_2
XFILLER_0_25_91 VGND VGND VPWR VPWR sky130_fd_sc_hd__fill_1
XPHY_EDGE_ROW_23_Left_51 VGND VGND VPWR VPWR sky130_fd_sc_hd__decap_3
X_165_ _092_ _089_ VGND VGND VPWR VPWR _093_ sky130_fd_sc_hd__nor2_4
X_234_ _150_ _097_ net9 VGND VGND VPWR VPWR _001_ sky130_fd_sc_hd__and3_1
X_303_ _125_ _059_ VGND VGND VPWR VPWR _065_ sky130_fd_sc_hd__or2b_1
X_217_ _144_ VGND VGND VPWR VPWR _145_ sky130_fd_sc_hd__buf_2
XFILLER_0_16_38 VPWR VGND VPWR VGND sky130_ef_sc_hd__decap_12
XFILLER_0_22_70 VGND VGND VPWR VPWR sky130_fd_sc_hd__decap_3
XFILLER_0_27_37 VGND VGND VPWR VPWR sky130_fd_sc_hd__decap_3
XFILLER_0_7_36 VPWR VGND VPWR VGND sky130_ef_sc_hd__decap_12
XTAP_TAPCELL_ROW_23_105 VGND VPWR sky130_fd_sc_hd__tapvpwrvgnd_1
XFILLER_0_17_70 VGND VGND VPWR VPWR sky130_fd_sc_hd__decap_4
XPHY_EDGE_ROW_5_Right_5 VGND VGND VPWR VPWR sky130_fd_sc_hd__decap_3
XTAP_TAPCELL_ROW_3_65 VGND VPWR sky130_fd_sc_hd__tapvpwrvgnd_1
XFILLER_0_13_28 VPWR VGND VPWR VGND sky130_ef_sc_hd__decap_12
XFILLER_0_4_15 VPWR VGND VPWR VGND sky130_ef_sc_hd__decap_12
XFILLER_0_19_27 VPWR VGND VPWR VGND sky130_ef_sc_hd__decap_12
X_181_ _107_ _108_ VGND VGND VPWR VPWR _109_ sky130_fd_sc_hd__nor2_2
X_250_ net19 _140_ _089_ VGND VGND VPWR VPWR _017_ sky130_fd_sc_hd__and3_2
XFILLER_0_10_29 VGND VGND VPWR VPWR sky130_fd_sc_hd__decap_6
XTAP_TAPCELL_ROW_13_85 VGND VPWR sky130_fd_sc_hd__tapvpwrvgnd_1
XFILLER_0_27_113 VGND VGND VPWR VPWR sky130_fd_sc_hd__decap_8
XFILLER_0_25_70 VGND VGND VPWR VPWR sky130_fd_sc_hd__decap_6
XFILLER_0_18_102 VGND VGND VPWR VPWR sky130_fd_sc_hd__decap_8
X_164_ net19 VGND VGND VPWR VPWR _092_ sky130_fd_sc_hd__inv_2
X_302_ net2 _091_ _058_ _064_ VGND VGND VPWR VPWR net21 sky130_fd_sc_hd__o2bb2a_1
X_233_ _160_ _101_ VGND VGND VPWR VPWR _000_ sky130_fd_sc_hd__or2b_2
XFILLER_0_15_105 VGND VGND VPWR VPWR sky130_fd_sc_hd__decap_6
X_216_ net17 net19 net18 VGND VGND VPWR VPWR _144_ sky130_fd_sc_hd__or3b_1
XFILLER_0_2_70 VPWR VGND VPWR VGND sky130_ef_sc_hd__decap_12
XFILLER_0_7_48 VGND VGND VPWR VPWR sky130_fd_sc_hd__decap_8
XPHY_EDGE_ROW_20_Right_20 VGND VGND VPWR VPWR sky130_fd_sc_hd__decap_3
XPHY_EDGE_ROW_11_Right_11 VGND VGND VPWR VPWR sky130_fd_sc_hd__decap_3
XFILLER_0_4_27 VGND VGND VPWR VPWR sky130_fd_sc_hd__fill_1
X_180_ _106_ _096_ _100_ VGND VGND VPWR VPWR _108_ sky130_fd_sc_hd__nor3_1
XFILLER_0_19_39 VGND VGND VPWR VPWR sky130_fd_sc_hd__decap_6
XTAP_TAPCELL_ROW_0_56 VGND VPWR sky130_fd_sc_hd__tapvpwrvgnd_1
XTAP_TAPCELL_ROW_9_76 VGND VPWR sky130_fd_sc_hd__tapvpwrvgnd_1
X_301_ _091_ _061_ _063_ VGND VGND VPWR VPWR _064_ sky130_fd_sc_hd__or3b_1
X_232_ _099_ _159_ VGND VGND VPWR VPWR _160_ sky130_fd_sc_hd__xnor2_2
X_163_ _090_ VGND VGND VPWR VPWR _091_ sky130_fd_sc_hd__clkbuf_4
XFILLER_0_5_81 VGND VGND VPWR VPWR sky130_fd_sc_hd__decap_3
XFILLER_0_11_51 VGND VGND VPWR VPWR sky130_fd_sc_hd__decap_4
XFILLER_0_11_73 VGND VGND VPWR VPWR sky130_fd_sc_hd__fill_1
XTAP_TAPCELL_ROW_19_96 VGND VPWR sky130_fd_sc_hd__tapvpwrvgnd_1
XFILLER_0_16_29 VGND VGND VPWR VPWR sky130_fd_sc_hd__fill_2
X_215_ _142_ VGND VGND VPWR VPWR _143_ sky130_fd_sc_hd__buf_2
XFILLER_0_7_103 VGND VGND VPWR VPWR sky130_fd_sc_hd__fill_2
XFILLER_0_22_83 VGND VGND VPWR VPWR sky130_fd_sc_hd__fill_1
XFILLER_0_2_82 VGND VGND VPWR VPWR sky130_fd_sc_hd__fill_2
XFILLER_0_8_81 VGND VGND VPWR VPWR sky130_fd_sc_hd__decap_3
XFILLER_0_8_92 VGND VGND VPWR VPWR sky130_fd_sc_hd__fill_2
XFILLER_0_14_3 VGND VGND VPWR VPWR sky130_fd_sc_hd__fill_2
XFILLER_0_24_29 VGND VGND VPWR VPWR sky130_fd_sc_hd__decap_6
XTAP_TAPCELL_ROW_0_57 VGND VPWR sky130_fd_sc_hd__tapvpwrvgnd_1
XTAP_TAPCELL_ROW_9_77 VGND VPWR sky130_fd_sc_hd__tapvpwrvgnd_1
XFILLER_0_25_83 VGND VGND VPWR VPWR sky130_fd_sc_hd__decap_8
XFILLER_0_18_115 VGND VGND VPWR VPWR sky130_fd_sc_hd__decap_4
X_300_ _006_ _018_ _062_ VGND VGND VPWR VPWR _063_ sky130_fd_sc_hd__or3_1
XFILLER_0_21_19 VPWR VGND VPWR VGND sky130_ef_sc_hd__decap_12
X_162_ net19 _089_ VGND VGND VPWR VPWR _090_ sky130_fd_sc_hd__nor2_2
X_231_ net9 _097_ net29 VGND VGND VPWR VPWR _159_ sky130_fd_sc_hd__o21ai_2
XTAP_TAPCELL_ROW_19_97 VGND VPWR sky130_fd_sc_hd__tapvpwrvgnd_1
Xinput1 A[0] VGND VGND VPWR VPWR net1 sky130_fd_sc_hd__buf_1
XPHY_EDGE_ROW_27_Left_55 VGND VGND VPWR VPWR sky130_fd_sc_hd__decap_3
XPHY_EDGE_ROW_11_Left_39 VGND VGND VPWR VPWR sky130_fd_sc_hd__decap_3
X_214_ net18 _092_ net17 VGND VGND VPWR VPWR _142_ sky130_fd_sc_hd__and3b_1
XFILLER_0_27_29 VGND VGND VPWR VPWR sky130_fd_sc_hd__decap_8
XPHY_EDGE_ROW_9_Right_9 VGND VGND VPWR VPWR sky130_fd_sc_hd__decap_3
XPHY_EDGE_ROW_14_Left_42 VGND VGND VPWR VPWR sky130_fd_sc_hd__decap_3
XTAP_TAPCELL_ROW_0_58 VGND VPWR sky130_fd_sc_hd__tapvpwrvgnd_1
X_161_ net17 net18 VGND VGND VPWR VPWR _089_ sky130_fd_sc_hd__or2_2
X_230_ net5 _157_ VGND VGND VPWR VPWR _158_ sky130_fd_sc_hd__nand2_2
XFILLER_0_1_19 VGND VGND VPWR VPWR sky130_fd_sc_hd__decap_8
XTAP_TAPCELL_ROW_10_78 VGND VPWR sky130_fd_sc_hd__tapvpwrvgnd_1
Xinput2 A[1] VGND VGND VPWR VPWR net2 sky130_fd_sc_hd__clkbuf_4
X_213_ net19 _140_ VGND VGND VPWR VPWR _141_ sky130_fd_sc_hd__nor2_4
XPHY_EDGE_ROW_2_Left_30 VGND VGND VPWR VPWR sky130_fd_sc_hd__decap_3
XFILLER_0_22_85 VPWR VGND VPWR VGND sky130_ef_sc_hd__decap_12
XFILLER_0_22_41 VGND VGND VPWR VPWR sky130_fd_sc_hd__decap_8
XFILLER_0_11_111 VGND VGND VPWR VPWR sky130_fd_sc_hd__fill_1
XFILLER_0_17_96 VPWR VGND VPWR VGND sky130_ef_sc_hd__decap_12
XFILLER_0_14_20 VGND VGND VPWR VPWR sky130_fd_sc_hd__decap_8
XTAP_TAPCELL_ROW_0_59 VGND VPWR sky130_fd_sc_hd__tapvpwrvgnd_1
XPHY_EDGE_ROW_27_Right_27 VGND VGND VPWR VPWR sky130_fd_sc_hd__decap_3
XPHY_EDGE_ROW_18_Right_18 VGND VGND VPWR VPWR sky130_fd_sc_hd__decap_3
X_289_ _091_ _047_ _052_ _053_ VGND VGND VPWR VPWR net27 sky130_fd_sc_hd__o31a_1
Xinput3 A[2] VGND VGND VPWR VPWR net3 sky130_fd_sc_hd__clkbuf_2
XTAP_TAPCELL_ROW_10_79 VGND VPWR sky130_fd_sc_hd__tapvpwrvgnd_1
XFILLER_0_11_21 VPWR VGND VPWR VGND sky130_ef_sc_hd__decap_12
XFILLER_0_11_87 VPWR VGND VPWR VGND sky130_ef_sc_hd__decap_12
XFILLER_0_20_112 VGND VGND VPWR VPWR sky130_fd_sc_hd__fill_1
X_212_ net17 net18 VGND VGND VPWR VPWR _140_ sky130_fd_sc_hd__nand2_1
XFILLER_0_22_97 VGND VGND VPWR VPWR sky130_fd_sc_hd__decap_8
XFILLER_0_2_41 VGND VGND VPWR VPWR sky130_fd_sc_hd__fill_1
XFILLER_0_17_64 VGND VGND VPWR VPWR sky130_fd_sc_hd__fill_1
XFILLER_0_17_42 VGND VGND VPWR VPWR sky130_fd_sc_hd__decap_8
XPHY_EDGE_ROW_0_Right_0 VGND VGND VPWR VPWR sky130_fd_sc_hd__decap_3
XFILLER_0_21_7 VGND VGND VPWR VPWR sky130_fd_sc_hd__decap_8
Xinput4 A[3] VGND VGND VPWR VPWR net4 sky130_fd_sc_hd__clkbuf_2
XFILLER_0_11_55 VGND VGND VPWR VPWR sky130_fd_sc_hd__fill_1
XFILLER_0_11_99 VPWR VGND VPWR VGND sky130_ef_sc_hd__decap_12
X_288_ net8 _091_ VGND VGND VPWR VPWR _053_ sky130_fd_sc_hd__nand2_1
X_211_ _131_ _138_ VGND VGND VPWR VPWR _139_ sky130_fd_sc_hd__xnor2_1
XFILLER_0_14_110 VGND VGND VPWR VPWR sky130_fd_sc_hd__fill_1
XFILLER_0_11_113 VGND VGND VPWR VPWR sky130_fd_sc_hd__fill_1