*SPEF "ieee 1481-1999"
*DESIGN "main"
*DATE "04:51:39 Friday April 25, 2025"
*VENDOR "The OpenROAD Project"
*PROGRAM "OpenROAD"
*VERSION "b16bda7e82721d10566ff7e2b68f1ff0be9f9e38"
*DESIGN_FLOW "NAME_SCOPE LOCAL" "PIN_CAP NONE"
*DIVIDER /
*DELIMITER :
*BUS_DELIMITER []
*T_UNIT 1 NS
*C_UNIT 1 PF
*R_UNIT 1 OHM
*L_UNIT 1 HENRY

*NAME_MAP
*1 A[0]
*2 A[1]
*3 A[2]
*4 A[3]
*5 A[4]
*6 A[5]
*7 A[6]
*8 A[7]
*9 B[0]
*10 B[1]
*11 B[2]
*12 B[3]
*13 B[4]
*14 B[5]
*15 B[6]
*16 B[7]
*19 opcode[0]
*20 opcode[1]
*21 opcode[2]
*22 out[0]
*23 out[1]
*24 out[2]
*25 out[3]
*26 out[4]
*27 out[5]
*28 out[6]
*29 out[7]
*30 _000_
*31 _001_
*32 _002_
*33 _003_
*34 _004_
*35 _005_
*36 _006_
*37 _007_
*38 _008_
*39 _009_
*40 _010_
*41 _011_
*42 _012_
*43 _013_
*44 _014_
*45 _015_
*46 _016_
*47 _017_
*48 _018_
*49 _019_
*50 _020_
*51 _021_
*52 _022_
*53 _023_
*54 _024_
*55 _025_
*56 _026_
*57 _027_
*58 _028_
*59 _029_
*60 _030_
*61 _031_
*62 _032_
*63 _033_
*64 _034_
*65 _035_
*66 _036_
*67 _037_
*68 _038_
*69 _039_
*70 _040_
*71 _041_
*72 _042_
*73 _043_
*74 _044_
*75 _045_
*76 _046_
*77 _047_
*78 _048_
*79 _049_
*80 _050_
*81 _051_
*82 _052_
*83 _053_
*84 _054_
*85 _055_
*86 _056_
*87 _057_
*88 _058_
*89 _059_
*90 _060_
*91 _061_
*92 _062_
*93 _063_
*94 _064_
*95 _065_
*96 _066_
*97 _067_
*98 _068_
*99 _069_
*100 _070_
*101 _071_
*102 _072_
*103 _073_
*104 _074_
*105 _075_
*106 _076_
*107 _077_
*108 _078_
*109 _079_
*110 _080_
*111 _081_
*112 _082_
*113 _083_
*114 _084_
*115 _085_
*116 _086_
*117 _087_
*118 _088_
*119 _089_
*120 _090_
*121 _091_
*122 _092_
*123 _093_
*124 _094_
*125 _095_
*126 _096_
*127 _097_
*128 _098_
*129 _099_
*130 _100_
*131 _101_
*132 _102_
*133 _103_
*134 _104_
*135 _105_
*136 _106_
*137 _107_
*138 _108_
*139 _109_
*140 _110_
*141 _111_
*142 _112_
*143 _113_
*144 _114_
*145 _115_
*146 _116_
*147 _117_
*148 _118_
*149 _119_
*150 _120_
*151 _121_
*152 _122_
*153 _123_
*154 _124_
*155 _125_
*156 _126_
*157 _127_
*158 _128_
*159 _129_
*160 _130_
*161 _131_
*162 _132_
*163 _133_
*164 _134_
*165 _135_
*166 _136_
*167 _137_
*168 _138_
*169 _139_
*170 _140_
*171 _141_
*172 _142_
*173 _143_
*174 _144_
*175 _145_
*176 _146_
*177 _147_
*178 _148_
*179 _149_
*180 _150_
*181 _151_
*182 _152_
*183 _153_
*184 _154_
*185 _155_
*186 _156_
*187 _157_
*188 _158_
*189 _159_
*190 _160_
*191 net1
*192 net10
*193 net11
*194 net12
*195 net13
*196 net14
*197 net15
*198 net16
*199 net17
*200 net18
*201 net19
*202 net2
*203 net20
*204 net21
*205 net22
*206 net23
*207 net24
*208 net25
*209 net26
*210 net27
*211 net28
*212 net29
*213 net3
*214 net30
*215 net4
*216 net5
*217 net6
*218 net7
*219 net8
*220 net9
*221 ANTENNA_1
*222 ANTENNA_2
*223 FILLER_0_0_109
*224 FILLER_0_0_113
*225 FILLER_0_0_118
*226 FILLER_0_0_13
*227 FILLER_0_0_23
*228 FILLER_0_0_27
*229 FILLER_0_0_29
*230 FILLER_0_0_49
*231 FILLER_0_0_55
*232 FILLER_0_0_62
*233 FILLER_0_0_7
*234 FILLER_0_0_71
*235 FILLER_0_0_83
*236 FILLER_0_0_85
*237 FILLER_0_0_97
*238 FILLER_0_10_101
*239 FILLER_0_10_113
*240 FILLER_0_10_123
*241 FILLER_0_10_15
*242 FILLER_0_10_27
*243 FILLER_0_10_29
*244 FILLER_0_10_3
*245 FILLER_0_10_35
*246 FILLER_0_10_45
*247 FILLER_0_10_57
*248 FILLER_0_10_70
*249 FILLER_0_10_82
*250 FILLER_0_10_89
*251 FILLER_0_11_111
*252 FILLER_0_11_113
*253 FILLER_0_11_119
*254 FILLER_0_11_21
*255 FILLER_0_11_39
*256 FILLER_0_11_51
*257 FILLER_0_11_55
*258 FILLER_0_11_57
*259 FILLER_0_11_69
*260 FILLER_0_11_73
*261 FILLER_0_11_80
*262 FILLER_0_11_87
*263 FILLER_0_11_9
*264 FILLER_0_11_99
*265 FILLER_0_12_103
*266 FILLER_0_12_117
*267 FILLER_0_12_18
*268 FILLER_0_12_26
*269 FILLER_0_12_29
*270 FILLER_0_12_44
*271 FILLER_0_12_56
*272 FILLER_0_12_6
*273 FILLER_0_12_83
*274 FILLER_0_12_85
*275 FILLER_0_12_93
*276 FILLER_0_13_110
*277 FILLER_0_13_113
*278 FILLER_0_13_121
*279 FILLER_0_13_16
*280 FILLER_0_13_28
*281 FILLER_0_13_40
*282 FILLER_0_13_44
*283 FILLER_0_13_53
*284 FILLER_0_13_57
*285 FILLER_0_13_69
*286 FILLER_0_13_74
*287 FILLER_0_13_86
*288 FILLER_0_13_98
*289 FILLER_0_14_104
*290 FILLER_0_14_110
*291 FILLER_0_14_117
*292 FILLER_0_14_20
*293 FILLER_0_14_3
*294 FILLER_0_14_45
*295 FILLER_0_14_57
*296 FILLER_0_14_69
*297 FILLER_0_14_81
*298 FILLER_0_14_92
*299 FILLER_0_15_105
*300 FILLER_0_15_111
*301 FILLER_0_15_113
*302 FILLER_0_15_13
*303 FILLER_0_15_19
*304 FILLER_0_15_31
*305 FILLER_0_15_43
*306 FILLER_0_15_55
*307 FILLER_0_15_57
*308 FILLER_0_15_61
*309 FILLER_0_15_69
*310 FILLER_0_15_81
*311 FILLER_0_15_93
*312 FILLER_0_16_10
*313 FILLER_0_16_105
*314 FILLER_0_16_120
*315 FILLER_0_16_124
*316 FILLER_0_16_22
*317 FILLER_0_16_29
*318 FILLER_0_16_38
*319 FILLER_0_16_50
*320 FILLER_0_16_71
*321 FILLER_0_16_83
*322 FILLER_0_16_85
*323 FILLER_0_17_108
*324 FILLER_0_17_113
*325 FILLER_0_17_119
*326 FILLER_0_17_21
*327 FILLER_0_17_33
*328 FILLER_0_17_42
*329 FILLER_0_17_64
*330 FILLER_0_17_7
*331 FILLER_0_17_70
*332 FILLER_0_17_96
*333 FILLER_0_18_102
*334 FILLER_0_18_115
*335 FILLER_0_18_119
*336 FILLER_0_18_15
*337 FILLER_0_18_27
*338 FILLER_0_18_29
*339 FILLER_0_18_3
*340 FILLER_0_18_41
*341 FILLER_0_18_53
*342 FILLER_0_18_65
*343 FILLER_0_18_70
*344 FILLER_0_18_90
*345 FILLER_0_19_103
*346 FILLER_0_19_107
*347 FILLER_0_19_122
*348 FILLER_0_19_15
*349 FILLER_0_19_27
*350 FILLER_0_19_39
*351 FILLER_0_19_53
*352 FILLER_0_19_57
*353 FILLER_0_19_69
*354 FILLER_0_19_7
*355 FILLER_0_19_81
*356 FILLER_0_19_91
*357 FILLER_0_1_102
*358 FILLER_0_1_113
*359 FILLER_0_1_19
*360 FILLER_0_1_42
*361 FILLER_0_1_50
*362 FILLER_0_1_55
*363 FILLER_0_1_61
*364 FILLER_0_1_7
*365 FILLER_0_1_73
*366 FILLER_0_1_82
*367 FILLER_0_1_94
*368 FILLER_0_20_108
*369 FILLER_0_20_112
*370 FILLER_0_20_118
*371 FILLER_0_20_15
*372 FILLER_0_20_27
*373 FILLER_0_20_3
*374 FILLER_0_20_32
*375 FILLER_0_20_44
*376 FILLER_0_20_62
*377 FILLER_0_20_71
*378 FILLER_0_20_81
*379 FILLER_0_20_85
*380 FILLER_0_20_89
*381 FILLER_0_21_104
*382 FILLER_0_21_113
*383 FILLER_0_21_19
*384 FILLER_0_21_31
*385 FILLER_0_21_43
*386 FILLER_0_21_55
*387 FILLER_0_21_57
*388 FILLER_0_21_69
*389 FILLER_0_21_7
*390 FILLER_0_21_75
*391 FILLER_0_21_83
*392 FILLER_0_21_95
*393 FILLER_0_22_105
*394 FILLER_0_22_14
*395 FILLER_0_22_26
*396 FILLER_0_22_29
*397 FILLER_0_22_3
*398 FILLER_0_22_41
*399 FILLER_0_22_49
*400 FILLER_0_22_58
*401 FILLER_0_22_7
*402 FILLER_0_22_70
*403 FILLER_0_22_83
*404 FILLER_0_22_85
*405 FILLER_0_22_97
*406 FILLER_0_23_102
*407 FILLER_0_23_109
*408 FILLER_0_23_123
*409 FILLER_0_23_28
*410 FILLER_0_23_32
*411 FILLER_0_23_48
*412 FILLER_0_23_54
*413 FILLER_0_23_57
*414 FILLER_0_23_69
*415 FILLER_0_23_81
*416 FILLER_0_23_85
*417 FILLER_0_24_124
*418 FILLER_0_24_15
*419 FILLER_0_24_20
*420 FILLER_0_24_29
*421 FILLER_0_24_3
*422 FILLER_0_24_35
*423 FILLER_0_24_47
*424 FILLER_0_24_57
*425 FILLER_0_24_64
*426 FILLER_0_24_68
*427 FILLER_0_24_76
*428 FILLER_0_24_80
*429 FILLER_0_25_105
*430 FILLER_0_25_111
*431 FILLER_0_25_120
*432 FILLER_0_25_124
*433 FILLER_0_25_19
*434 FILLER_0_25_27
*435 FILLER_0_25_34
*436 FILLER_0_25_46
*437 FILLER_0_25_54
*438 FILLER_0_25_57
*439 FILLER_0_25_7
*440 FILLER_0_25_70
*441 FILLER_0_25_83
*442 FILLER_0_25_91
*443 FILLER_0_26_108
*444 FILLER_0_26_112
*445 FILLER_0_26_124
*446 FILLER_0_26_19
*447 FILLER_0_26_27
*448 FILLER_0_26_3
*449 FILLER_0_26_40
*450 FILLER_0_26_44
*451 FILLER_0_26_52
*452 FILLER_0_26_67
*453 FILLER_0_26_71
*454 FILLER_0_26_76
*455 FILLER_0_26_85
*456 FILLER_0_26_9
*457 FILLER_0_26_97
*458 FILLER_0_27_109
*459 FILLER_0_27_113
*460 FILLER_0_27_12
*461 FILLER_0_27_24
*462 FILLER_0_27_29
*463 FILLER_0_27_37
*464 FILLER_0_27_45
*465 FILLER_0_27_53
*466 FILLER_0_27_57
*467 FILLER_0_27_61
*468 FILLER_0_27_75
*469 FILLER_0_27_83
*470 FILLER_0_27_85
*471 FILLER_0_27_97
*472 FILLER_0_2_102
*473 FILLER_0_2_17
*474 FILLER_0_2_24
*475 FILLER_0_2_29
*476 FILLER_0_2_3
*477 FILLER_0_2_41
*478 FILLER_0_2_58
*479 FILLER_0_2_70
*480 FILLER_0_2_82
*481 FILLER_0_2_9
*482 FILLER_0_2_98
*483 FILLER_0_3_100
*484 FILLER_0_3_19
*485 FILLER_0_3_47
*486 FILLER_0_3_55
*487 FILLER_0_3_64
*488 FILLER_0_3_7
*489 FILLER_0_3_76
*490 FILLER_0_3_88
*491 FILLER_0_3_91
*492 FILLER_0_4_111
*493 FILLER_0_4_124
*494 FILLER_0_4_15
*495 FILLER_0_4_27
*496 FILLER_0_4_3
*497 FILLER_0_4_34
*498 FILLER_0_4_46
*499 FILLER_0_4_58
*500 FILLER_0_4_70
*501 FILLER_0_4_82
*502 FILLER_0_4_95
*503 FILLER_0_5_111
*504 FILLER_0_5_13
*505 FILLER_0_5_25
*506 FILLER_0_5_3
*507 FILLER_0_5_37
*508 FILLER_0_5_49
*509 FILLER_0_5_55
*510 FILLER_0_5_57
*511 FILLER_0_5_69
*512 FILLER_0_5_81
*513 FILLER_0_5_87
*514 FILLER_0_5_99
*515 FILLER_0_6_109
*516 FILLER_0_6_121
*517 FILLER_0_6_15
*518 FILLER_0_6_27
*519 FILLER_0_6_33
*520 FILLER_0_6_41
*521 FILLER_0_6_53
*522 FILLER_0_6_65
*523 FILLER_0_6_69
*524 FILLER_0_6_7
*525 FILLER_0_6_83
*526 FILLER_0_6_85
*527 FILLER_0_6_97
*528 FILLER_0_7_103
*529 FILLER_0_7_12
*530 FILLER_0_7_122
*531 FILLER_0_7_24
*532 FILLER_0_7_3
*533 FILLER_0_7_36
*534 FILLER_0_7_48
*535 FILLER_0_7_57
*536 FILLER_0_7_76
*537 FILLER_0_7_95
*538 FILLER_0_8_104
*539 FILLER_0_8_116
*540 FILLER_0_8_19
*541 FILLER_0_8_27
*542 FILLER_0_8_29
*543 FILLER_0_8_36
*544 FILLER_0_8_48
*545 FILLER_0_8_7
*546 FILLER_0_8_81
*547 FILLER_0_8_92
*548 FILLER_0_9_107
*549 FILLER_0_9_111
*550 FILLER_0_9_119
*551 FILLER_0_9_12
*552 FILLER_0_9_24
*553 FILLER_0_9_3
*554 FILLER_0_9_36
*555 FILLER_0_9_48
*556 FILLER_0_9_57
*557 FILLER_0_9_67
*558 FILLER_0_9_79
*559 FILLER_0_9_91
*560 FILLER_0_9_95
*561 PHY_EDGE_ROW_0_Left_28
*562 PHY_EDGE_ROW_0_Right_0
*563 PHY_EDGE_ROW_10_Left_38
*564 PHY_EDGE_ROW_10_Right_10
*565 PHY_EDGE_ROW_11_Left_39
*566 PHY_EDGE_ROW_11_Right_11
*567 PHY_EDGE_ROW_12_Left_40
*568 PHY_EDGE_ROW_12_Right_12
*569 PHY_EDGE_ROW_13_Left_41
*570 PHY_EDGE_ROW_13_Right_13
*571 PHY_EDGE_ROW_14_Left_42
*572 PHY_EDGE_ROW_14_Right_14
*573 PHY_EDGE_ROW_15_Left_43
*574 PHY_EDGE_ROW_15_Right_15
*575 PHY_EDGE_ROW_16_Left_44
*576 PHY_EDGE_ROW_16_Right_16
*577 PHY_EDGE_ROW_17_Left_45
*578 PHY_EDGE_ROW_17_Right_17
*579 PHY_EDGE_ROW_18_Left_46
*580 PHY_EDGE_ROW_18_Right_18
*581 PHY_EDGE_ROW_19_Left_47
*582 PHY_EDGE_ROW_19_Right_19
*583 PHY_EDGE_ROW_1_Left_29
*584 PHY_EDGE_ROW_1_Right_1
*585 PHY_EDGE_ROW_20_Left_48
*586 PHY_EDGE_ROW_20_Right_20
*587 PHY_EDGE_ROW_21_Left_49
*588 PHY_EDGE_ROW_21_Right_21
*589 PHY_EDGE_ROW_22_Left_50
*590 PHY_EDGE_ROW_22_Right_22
*591 PHY_EDGE_ROW_23_Left_51
*592 PHY_EDGE_ROW_23_Right_23
*593 PHY_EDGE_ROW_24_Left_52
*594 PHY_EDGE_ROW_24_Right_24
*595 PHY_EDGE_ROW_25_Left_53
*596 PHY_EDGE_ROW_25_Right_25
*597 PHY_EDGE_ROW_26_Left_54
*598 PHY_EDGE_ROW_26_Right_26
*599 PHY_EDGE_ROW_27_Left_55
*600 PHY_EDGE_ROW_27_Right_27
*601 PHY_EDGE_ROW_2_Left_30
*602 PHY_EDGE_ROW_2_Right_2
*603 PHY_EDGE_ROW_3_Left_31
*604 PHY_EDGE_ROW_3_Right_3
*605 PHY_EDGE_ROW_4_Left_32
*606 PHY_EDGE_ROW_4_Right_4
*607 PHY_EDGE_ROW_5_Left_33
*608 PHY_EDGE_ROW_5_Right_5
*609 PHY_EDGE_ROW_6_Left_34
*610 PHY_EDGE_ROW_6_Right_6
*611 PHY_EDGE_ROW_7_Left_35
*612 PHY_EDGE_ROW_7_Right_7
*613 PHY_EDGE_ROW_8_Left_36
*614 PHY_EDGE_ROW_8_Right_8
*615 PHY_EDGE_ROW_9_Left_37
*616 PHY_EDGE_ROW_9_Right_9
*617 TAP_TAPCELL_ROW_0_56
*618 TAP_TAPCELL_ROW_0_57
*619 TAP_TAPCELL_ROW_0_58
*620 TAP_TAPCELL_ROW_0_59
*621 TAP_TAPCELL_ROW_10_78
*622 TAP_TAPCELL_ROW_10_79
*623 TAP_TAPCELL_ROW_11_80
*624 TAP_TAPCELL_ROW_11_81
*625 TAP_TAPCELL_ROW_12_82
*626 TAP_TAPCELL_ROW_12_83
*627 TAP_TAPCELL_ROW_13_84
*628 TAP_TAPCELL_ROW_13_85
*629 TAP_TAPCELL_ROW_14_86
*630 TAP_TAPCELL_ROW_14_87
*631 TAP_TAPCELL_ROW_15_88
*632 TAP_TAPCELL_ROW_15_89
*633 TAP_TAPCELL_ROW_16_90
*634 TAP_TAPCELL_ROW_16_91
*635 TAP_TAPCELL_ROW_17_92
*636 TAP_TAPCELL_ROW_17_93
*637 TAP_TAPCELL_ROW_18_94
*638 TAP_TAPCELL_ROW_18_95
*639 TAP_TAPCELL_ROW_19_96
*640 TAP_TAPCELL_ROW_19_97
*641 TAP_TAPCELL_ROW_1_60
*642 TAP_TAPCELL_ROW_1_61
*643 TAP_TAPCELL_ROW_20_98
*644 TAP_TAPCELL_ROW_20_99
*645 TAP_TAPCELL_ROW_21_100
*646 TAP_TAPCELL_ROW_21_101
*647 TAP_TAPCELL_ROW_22_102
*648 TAP_TAPCELL_ROW_22_103
*649 TAP_TAPCELL_ROW_23_104
*650 TAP_TAPCELL_ROW_23_105
*651 TAP_TAPCELL_ROW_24_106
*652 TAP_TAPCELL_ROW_24_107
*653 TAP_TAPCELL_ROW_25_108
*654 TAP_TAPCELL_ROW_25_109
*655 TAP_TAPCELL_ROW_26_110
*656 TAP_TAPCELL_ROW_26_111
*657 TAP_TAPCELL_ROW_27_112
*658 TAP_TAPCELL_ROW_27_113
*659 TAP_TAPCELL_ROW_27_114
*660 TAP_TAPCELL_ROW_27_115
*661 TAP_TAPCELL_ROW_2_62
*662 TAP_TAPCELL_ROW_2_63
*663 TAP_TAPCELL_ROW_3_64
*664 TAP_TAPCELL_ROW_3_65
*665 TAP_TAPCELL_ROW_4_66
*666 TAP_TAPCELL_ROW_4_67
*667 TAP_TAPCELL_ROW_5_68
*668 TAP_TAPCELL_ROW_5_69
*669 TAP_TAPCELL_ROW_6_70
*670 TAP_TAPCELL_ROW_6_71
*671 TAP_TAPCELL_ROW_7_72
*672 TAP_TAPCELL_ROW_7_73
*673 TAP_TAPCELL_ROW_8_74
*674 TAP_TAPCELL_ROW_8_75
*675 TAP_TAPCELL_ROW_9_76
*676 TAP_TAPCELL_ROW_9_77
*677 _161_
*678 _162_
*679 _163_
*680 _164_
*681 _165_
*682 _166_
*683 _167_
*684 _168_
*685 _169_
*686 _170_
*687 _171_
*688 _172_
*689 _173_
*690 _174_
*691 _175_
*692 _176_
*693 _177_
*694 _178_
*695 _179_
*696 _180_
*697 _181_
*698 _182_
*699 _183_
*700 _184_
*701 _185_
*702 _186_
*703 _187_
*704 _188_
*705 _189_
*706 _190_
*707 _191_
*708 _192_
*709 _193_
*710 _194_
*711 _195_
*712 _196_
*713 _197_
*714 _198_
*715 _199_
*716 _200_
*717 _201_
*718 _202_
*719 _203_
*720 _204_
*721 _205_
*722 _206_
*723 _207_
*724 _208_
*725 _209_
*726 _210_
*727 _211_
*728 _212_
*729 _213_
*730 _214_
*731 _215_
*732 _216_
*733 _217_
*734 _218_
*735 _219_
*736 _220_
*737 _221_
*738 _222_
*739 _223_
*740 _224_
*741 _225_
*742 _226_
*743 _227_
*744 _228_
*745 _229_
*746 _230_
*747 _231_
*748 _232_
*749 _233_
*750 _234_
*751 _235_
*752 _236_
*753 _237_
*754 _238_
*755 _239_
*756 _240_
*757 _241_
*758 _242_
*759 _243_
*760 _244_
*761 _245_
*762 _246_
*763 _247_
*764 _248_
*765 _249_
*766 _250_
*767 _251_
*768 _252_
*769 _253_
*770 _254_
*771 _255_
*772 _256_
*773 _257_
*774 _258_
*775 _259_
*776 _260_
*777 _261_
*778 _262_
*779 _263_
*780 _264_
*781 _265_
*782 _266_
*783 _267_
*784 _268_
*785 _269_
*786 _270_
*787 _271_
*788 _272_
*789 _273_
*790 _274_
*791 _275_
*792 _276_
*793 _277_
*794 _278_
*795 _279_
*796 _280_
*797 _281_
*798 _282_
*799 _283_
*800 _284_
*801 _285_
*802 _286_
*803 _287_
*804 _288_
*805 _289_
*806 _290_
*807 _291_
*808 _292_
*809 _293_
*810 _294_
*811 _295_
*812 _296_
*813 _297_
*814 _298_
*815 _299_
*816 _300_
*817 _301_
*818 _302_
*819 _303_
*820 _304_
*821 _305_
*822 _306_
*823 _307_
*824 _308_
*825 _309_
*826 _310_
*827 _311_
*828 _312_
*829 _313_
*830 _314_
*831 _315_
*832 _316_
*833 _317_
*834 _318_
*835 _319_
*836 _320_
*837 _321_
*838 _322_
*839 _323_
*840 _324_
*841 _325_
*842 _326_
*843 _327_
*844 _328_
*845 _329_
*846 input1
*847 input10
*848 input11
*849 input12
*850 input13
*851 input14
*852 input15
*853 input16
*854 input17
*855 input18
*856 input19
*857 input2
*858 input3
*859 input4
*860 input5
*861 input6
*862 input7
*863 input8
*864 input9
*865 output20
*866 output21
*867 output22
*868 output23
*869 output24
*870 output25
*871 output26
*872 output27
*873 rebuffer1
*874 rebuffer2
*875 rebuffer3

*PORTS
A[0] I
A[1] I
A[2] I
A[3] I
A[4] I
A[5] I
A[6] I
A[7] I
B[0] I
B[1] I
B[2] I
B[3] I
B[4] I
B[5] I
B[6] I
B[7] I
opcode[0] I
opcode[1] I
opcode[2] I
out[0] O
out[1] O
out[2] O
out[3] O
out[4] O
out[5] O
out[6] O
out[7] O

*D_NET *1 0.00101966
*CONN
*P A[0] I
*I *846:A I *D sky130_fd_sc_hd__buf_1
*CAP
1 A[0] 0.000414332
2 *846:A 0.000414332
3 *846:A *853:A 0
4 *846:A *857:A 0
5 *846:A *62:40 0
6 *846:A *93:24 9.36141e-05
7 *846:A *111:18 9.73787e-05
*RES
1 A[0] *846:A 21.391 
*END

*D_NET *2 0.00114571
*CONN
*P A[1] I
*I *857:A I *D sky130_fd_sc_hd__clkbuf_4
*CAP
1 A[1] 0.000433333
2 *857:A 0.000433333
3 *857:A *858:A 0
4 *857:A *36:22 0.000191433
5 *857:A *110:16 4.38058e-05
6 *857:A *192:44 4.38058e-05
7 *846:A *857:A 0
*RES
1 A[1] *857:A 19.2306 
*END

*D_NET *3 0.00114585
*CONN
*P A[2] I
*I *858:A I *D sky130_fd_sc_hd__clkbuf_2
*CAP
1 A[2] 0.000432546
2 *858:A 0.000432546
3 *858:A *859:A 0
4 *858:A *110:16 0.000140379
5 *858:A *192:44 0.000140379
6 *857:A *858:A 0
*RES
1 A[2] *858:A 19.7128 
*END

*D_NET *4 0.00127345
*CONN
*P A[3] I
*I *859:A I *D sky130_fd_sc_hd__clkbuf_2
*CAP
1 A[3] 0.000398445
2 *859:A 0.000398445
3 *859:A *77:12 4.51928e-05
4 *859:A *87:28 0.000339986
5 *859:A *192:44 9.13792e-05
6 *858:A *859:A 0
*RES
1 A[3] *859:A 19.3062 
*END

*D_NET *5 0.0014227
*CONN
*P A[4] I
*I *860:A I *D sky130_fd_sc_hd__buf_2
*CAP
1 A[4] 0.000500079
2 *860:A 0.000500079
3 *860:A *798:C 0.000125002
4 *860:A *861:A 0
5 *860:A *47:48 0.000180079
6 *860:A *77:12 2.68e-05
7 *860:A *87:28 0
8 *860:A *91:14 0
9 *860:A *217:12 9.06586e-05
*RES
1 A[4] *860:A 20.9456 
*END

*D_NET *6 0.000993231
*CONN
*P A[5] I
*I *861:A I *D sky130_fd_sc_hd__clkbuf_2
*CAP
1 A[5] 0.000378694
2 *861:A 0.000378694
3 *861:A *862:A 0
4 *861:A *36:22 0
5 *861:A *62:40 0
6 *861:A *93:24 9.49922e-05
7 *861:A *112:26 2.57713e-05
8 *861:A *113:26 9.51694e-05
9 *861:A *217:12 1.99099e-05
10 *860:A *861:A 0
*RES
1 A[5] *861:A 19.4092 
*END

*D_NET *7 0.000750959
*CONN
*P A[6] I
*I *862:A I *D sky130_fd_sc_hd__buf_2
*CAP
1 A[6] 0.000323501
2 *862:A 0.000323501
3 *862:A *863:A 0
4 *862:A *36:22 3.19585e-05
5 *862:A *93:24 0
6 *862:A *134:28 4.5958e-05
7 *862:A *204:20 2.60404e-05
8 *861:A *862:A 0
*RES
1 A[6] *862:A 19.2654 
*END

*D_NET *8 0.000896481
*CONN
*P A[7] I
*I *863:A I *D sky130_fd_sc_hd__clkbuf_2
*CAP
1 A[7] 0.000398719
2 *863:A 0.000398719
3 *863:A *36:12 9.90431e-05
4 *862:A *863:A 0
*RES
1 A[7] *863:A 23.016 
*END

*D_NET *9 0.000970202
*CONN
*P B[0] I
*I *864:A I *D sky130_fd_sc_hd__clkbuf_4
*CAP
1 B[0] 0.000403431
2 *864:A 0.000403431
3 *864:A *847:A 0
4 *864:A *50:32 0.000163339
5 *864:A *204:20 0
*RES
1 B[0] *864:A 21.5342 
*END

*D_NET *10 0.00108219
*CONN
*P B[1] I
*I *847:A I *D sky130_fd_sc_hd__buf_1
*CAP
1 B[1] 0.0003804
2 *847:A 0.0003804
3 *847:A *848:A 0
4 *847:A *50:32 0
5 *847:A *87:28 6.80839e-05
6 *847:A *204:20 4.98422e-05
7 *847:A *220:16 9.95691e-05
8 *847:A *220:39 0.000103895
9 *864:A *847:A 0
*RES
1 B[1] *847:A 22.9774 
*END

*D_NET *11 0.00101321
*CONN
*P B[2] I
*I *848:A I *D sky130_fd_sc_hd__clkbuf_2
*CAP
1 B[2] 0.000328703
2 *848:A 0.000328703
3 *848:A *845:B1 0.00032804
4 *848:A *849:A 0
5 *848:A *60:16 0
6 *848:A *87:28 6.63171e-06
7 *848:A *93:18 2.11362e-05
8 *847:A *848:A 0
*RES
1 B[2] *848:A 21.1946 
*END

*D_NET *12 0.000883817
*CONN
*P B[3] I
*I *849:A I *D sky130_fd_sc_hd__dlymetal6s2s_1
*CAP
1 B[3] 0.000377176
2 *849:A 0.000377176
3 *849:A *850:A 0
4 *849:A *60:18 1.28585e-05
5 *849:A *62:20 1.94879e-05
6 *849:A *102:18 9.71197e-05
7 *848:A *849:A 0
*RES
1 B[3] *849:A 20.4803 
*END

*D_NET *13 0.00100041
*CONN
*P B[4] I
*I *850:A I *D sky130_fd_sc_hd__buf_2
*CAP
1 B[4] 0.000410084
2 *850:A 0.000410084
3 *850:A *836:B1 8.83024e-05
4 *850:A *851:A 0
5 *850:A *50:20 5.43178e-05
6 *850:A *102:18 1.68624e-05
7 *850:A *113:26 2.07552e-05
8 *849:A *850:A 0
*RES
1 B[4] *850:A 19.0336 
*END

*D_NET *14 0.00105983
*CONN
*P B[5] I
*I *851:A I *D sky130_fd_sc_hd__clkbuf_2
*CAP
1 B[5] 0.00045159
2 *851:A 0.00045159
3 *851:A *62:20 5.49413e-05
4 *851:A *111:14 5.53178e-05
5 *851:A *111:18 4.6387e-05
6 *850:A *851:A 0
*RES
1 B[5] *851:A 21.1946 
*END

*D_NET *15 0.000999186
*CONN
*P B[6] I
*I *852:A I *D sky130_fd_sc_hd__buf_2
*CAP
1 B[6] 0.000390877
2 *852:A 0.000390877
3 *852:A *799:A1 5.34393e-05
4 *852:A *805:A2 2.59355e-05
5 *852:A *48:45 6.05161e-06
6 *852:A *62:20 4.05902e-05
7 *852:A *93:24 4.38243e-05
8 *852:A *111:18 4.75911e-05
*RES
1 B[6] *852:A 20.7838 
*END

*D_NET *16 0.00115432
*CONN
*P B[7] I
*I *853:A I *D sky130_fd_sc_hd__dlymetal6s2s_1
*CAP
1 B[7] 0.000457154
2 *853:A 0.000457154
3 *853:A *799:A1 0
4 *853:A *48:24 6.05161e-06
5 *853:A *93:24 0.000115094
6 *853:A *111:18 0.000118866
7 *846:A *853:A 0
*RES
1 B[7] *853:A 21.6946 
*END

*D_NET *19 0.000927967
*CONN
*P opcode[0] I
*I *854:A I *D sky130_fd_sc_hd__clkbuf_2
*CAP
1 opcode[0] 0.000450335
2 *854:A 0.000450335
3 *854:A out[7] 0
4 *854:A *199:12 2.72967e-05
*RES
1 opcode[0] *854:A 22.3536 
*END

*D_NET *20 0.000907221
*CONN
*P opcode[1] I
*I *855:A I *D sky130_fd_sc_hd__buf_2
*CAP
1 opcode[1] 0.000411928
2 *855:A 0.000411928
3 *855:A *133:123 5.49544e-05
4 *855:A *134:28 0
5 *855:A *144:24 2.84109e-05
*RES
1 opcode[1] *855:A 21.8357 
*END

*D_NET *21 0.000940351
*CONN
*P opcode[2] I
*I *856:A I *D sky130_fd_sc_hd__clkbuf_4
*CAP
1 opcode[2] 0.000402291
2 *856:A 0.000402291
3 *856:A *36:12 9.90431e-05
4 *856:A *219:14 3.67257e-05
*RES
1 opcode[2] *856:A 21.9429 
*END

*D_NET *22 0.0013221
*CONN
*P out[0] O
*I *865:X O *D sky130_fd_sc_hd__buf_2
*CAP
1 out[0] 0.000622726
2 *865:X 0.000622726
3 out[0] *58:10 7.6644e-05
*RES
1 *865:X out[0] 24.267 
*END

*D_NET *23 0.00181555
*CONN
*P out[1] O
*I *866:X O *D sky130_fd_sc_hd__buf_2
*CAP
1 out[1] 0.000589661
2 *866:X 0.000589661
3 out[1] *778:B1 0
4 out[1] *832:B2 0.000104902
5 out[1] *96:38 0.000531322
6 out[1] *125:16 0
*RES
1 *866:X out[1] 19.9137 
*END

*D_NET *24 0.00104304
*CONN
*P out[2] O
*I *867:X O *D sky130_fd_sc_hd__buf_2
*CAP
1 out[2] 0.000488808
2 *867:X 0.000488808
3 out[2] *820:C 6.47254e-05
4 out[2] *31:32 7.02642e-07
*RES
1 *867:X out[2] 18.8021 
*END

*D_NET *25 0.0011242
*CONN
*P out[3] O
*I *868:X O *D sky130_fd_sc_hd__buf_2
*CAP
1 out[3] 0.000405348
2 *868:X 0.000405348
3 out[3] *44:24 1.84229e-05
4 out[3] *95:16 0.000117421
5 out[3] *164:14 5.96177e-05
6 out[3] *175:70 0.000115369
7 out[3] *188:71 2.66789e-06
*RES
1 *868:X out[3] 19.4092 
*END

*D_NET *26 0.000881034
*CONN
*P out[4] O
*I *869:X O *D sky130_fd_sc_hd__buf_2
*CAP
1 out[4] 0.000404123
2 *869:X 0.000404123
3 out[4] *806:B2 5.33005e-05
4 out[4] *135:14 1.94879e-05
*RES
1 *869:X out[4] 20.3518 
*END

*D_NET *27 0.00127698
*CONN
*P out[5] O
*I *870:X O *D sky130_fd_sc_hd__buf_4
*CAP
1 out[5] 0.000481405
2 *870:X 0.000481405
3 out[5] *750:C 0.000110779
4 out[5] *96:38 0
5 out[5] *106:24 6.5834e-05
6 out[5] *215:56 0.000137561
*RES
1 *870:X out[5] 19.7848 
*END

*D_NET *28 0.00085258
*CONN
*P out[6] O
*I *871:X O *D sky130_fd_sc_hd__buf_2
*CAP
1 out[6] 0.000263128
2 *871:X 0.000263128
3 out[6] *151:42 1.626e-05
4 out[6] *209:30 0.000310064
*RES
1 *871:X out[6] 18.1949 
*END

*D_NET *29 0.000836785
*CONN
*P out[7] O
*I *872:X O *D sky130_fd_sc_hd__buf_2
*CAP
1 out[7] 0.000418392
2 *872:X 0.000418392
3 *854:A out[7] 0
*RES
1 *872:X out[7] 21.8378 
*END

*D_NET *30 0.0184036
*CONN
*I *829:A1 I *D sky130_fd_sc_hd__a21oi_1
*I *838:A1 I *D sky130_fd_sc_hd__a31o_1
*I *764:A1 I *D sky130_fd_sc_hd__a311o_4
*I *830:A1 I *D sky130_fd_sc_hd__a31o_1
*I *749:X O *D sky130_fd_sc_hd__or2b_2
*CAP
1 *829:A1 0.000718964
2 *838:A1 0
3 *764:A1 0
4 *830:A1 0.000887392
5 *749:X 0.000757563
6 *30:76 0.00160815
7 *30:32 0.00185986
8 *30:14 0.00261921
9 *829:A1 *689:A 0.000182592
10 *829:A1 *712:A_N 0.000158137
11 *829:A1 *732:B 3.95515e-05
12 *829:A1 *736:B1 0.000529968
13 *829:A1 *829:A2 0.00053983
14 *829:A1 *829:B1 2.12087e-05
15 *829:A1 *145:20 0
16 *830:A1 *747:B1 9.60875e-05
17 *830:A1 *805:A3 0.0003302
18 *830:A1 *814:A1 9.41642e-05
19 *830:A1 *830:A2 0.000130547
20 *830:A1 *830:A3 0.000206395
21 *830:A1 *48:18 0.000145753
22 *830:A1 *201:14 9.11631e-05
23 *30:14 *739:A4 1.38323e-05
24 *30:14 *740:A1 5.52238e-05
25 *30:14 *785:B 5.42603e-05
26 *30:14 *37:10 1.36825e-05
27 *30:14 *80:20 0.000376048
28 *30:14 *101:14 0.000755652
29 *30:14 *121:49 0.000712251
30 *30:14 *127:106 0.000230155
31 *30:14 *181:10 5.52302e-05
32 *30:14 *182:18 0.00020523
33 *30:14 *212:24 0.000263329
34 *30:14 *212:32 0.000150185
35 *30:32 *747:B1 4.08637e-05
36 *30:32 *765:C 8.29063e-05
37 *30:32 *768:B1 6.29833e-05
38 *30:32 *803:A2 7.72966e-05
39 *30:32 *814:A1 0.000119057
40 *30:32 *45:10 7.5779e-05
41 *30:32 *45:38 0.000505335
42 *30:32 *186:32 0.00034127
43 *30:76 *695:A2 0.000114643
44 *30:76 *709:A1 0.000171538
45 *30:76 *716:B 6.17606e-05
46 *30:76 *717:B 0.000108745
47 *30:76 *720:C 6.51931e-05
48 *30:76 *732:B 5.58875e-06
49 *30:76 *799:A1 1.496e-05
50 *30:76 *829:A2 9.54798e-06
51 *30:76 *837:B 0.0001251
52 *30:76 *38:24 0.000576019
53 *30:76 *101:14 0.000492981
54 *30:76 *121:49 0.000592567
55 *30:76 *124:53 2.06178e-05
56 *30:76 *130:37 4.65519e-05
57 *30:76 *150:20 0.00079052
*RES
1 *749:X *30:14 34.7464 
2 *30:14 *30:32 27.2679 
3 *30:32 *830:A1 34.0679 
4 *30:32 *764:A1 9.3 
5 *30:14 *30:76 34.1924 
6 *30:76 *838:A1 13.8 
7 *30:76 *829:A1 27.5857 
*END

*D_NET *31 0.0183687
*CONN
*I *754:B I *D sky130_fd_sc_hd__nor3_2
*I *752:A1 I *D sky130_fd_sc_hd__o21a_2
*I *750:X O *D sky130_fd_sc_hd__and3_1
*CAP
1 *754:B 2.27805e-06
2 *752:A1 0
3 *750:X 0.000706141
4 *31:54 0.00104126
5 *31:32 0.00347184
6 *31:12 0.00313444
7 *754:B *158:32 3.74417e-06
8 *31:12 *750:A 5.79624e-05
9 *31:12 *750:C 1.95435e-05
10 *31:12 *125:20 0.000110979
11 *31:12 *135:8 0
12 *31:12 *135:14 0.000134086
13 *31:12 *151:42 0
14 *31:12 *164:10 0
15 *31:12 *208:14 1.75495e-05
16 *31:32 *701:A 8.27562e-05
17 *31:32 *716:B 0
18 *31:32 *744:A 7.34905e-05
19 *31:32 *777:A1 0.00119973
20 *31:32 *809:B1 1.51571e-05
21 *31:32 *832:B2 0.000436723
22 *31:32 *35:16 4.31941e-05
23 *31:32 *57:24 0.00177811
24 *31:32 *96:38 0.000404485
25 *31:32 *106:24 8.98798e-06
26 *31:32 *124:84 1.59463e-05
27 *31:32 *125:20 5.16107e-05
28 *31:32 *141:146 4.61737e-06
29 *31:32 *143:14 7.59863e-05
30 *31:32 *147:26 2.23032e-05
31 *31:32 *156:55 0.000409508
32 *31:32 *158:32 9.48217e-05
33 *31:32 *164:14 0
34 *31:32 *180:38 4.98422e-05
35 *31:32 *185:37 4.98422e-05
36 *31:32 *197:89 8.92205e-05
37 *31:32 *201:46 9.41642e-05
38 *31:32 *206:22 0
39 *31:32 *208:14 0.00119171
40 *31:32 *213:57 9.94696e-05
41 *31:32 *217:61 9.86603e-05
42 *31:54 *689:A 0
43 *31:54 *712:A_N 1.0562e-05
44 *31:54 *713:B 0.000392123
45 *31:54 *754:C 0.000281784
46 *31:54 *809:B1 0.000312056
47 *31:54 *810:A 9.50717e-05
48 *31:54 *829:A2 0.000392856
49 *31:54 *829:B1 1.33875e-05
50 *31:54 *104:28 0.000136427
51 *31:54 *124:90 7.57358e-05
52 *31:54 *124:104 2.11419e-05
53 *31:54 *127:177 5.51168e-05
54 *31:54 *131:8 5.65955e-05
55 *31:54 *132:57 8.92374e-05
56 *31:54 *133:20 0
57 *31:54 *133:90 0
58 *31:54 *147:55 8.6229e-06
59 *31:54 *158:32 0
60 *31:54 *183:45 0.000868904
61 *31:54 *201:46 3.53712e-05
62 *31:54 *203:12 0.000210207
63 *31:54 *220:39 0.00022266
64 out[2] *31:32 7.02642e-07
*RES
1 *750:X *31:12 26.8982 
2 *31:12 *31:32 44.9598 
3 *31:32 *31:54 43.6786 
4 *31:54 *752:A1 9.3 
5 *31:32 *754:B 9.43393 
*END

*D_NET *32 0.00566938
*CONN
*I *754:C I *D sky130_fd_sc_hd__nor3_2
*I *752:A2 I *D sky130_fd_sc_hd__o21a_2
*I *751:Y O *D sky130_fd_sc_hd__a21oi_1
*CAP
1 *754:C 0.00099606
2 *752:A2 0.000203986
3 *751:Y 9.64255e-05
4 *32:6 0.00129647
5 *752:A2 *713:A 7.57312e-05
6 *752:A2 *713:B 0.000572522
7 *752:A2 *155:10 0.000485742
8 *752:A2 *220:39 1.10868e-05
9 *754:C *829:B1 0
10 *754:C *133:90 0
11 *754:C *156:25 7.69776e-06
12 *754:C *183:45 0.00102641
13 *754:C *200:74 0
14 *754:C *201:46 0.000363544
15 *32:6 *713:A 5.36e-05
16 *32:6 *736:A2 9.99853e-05
17 *32:6 *220:43 9.83442e-05
18 *31:54 *754:C 0.000281784
*RES
1 *751:Y *32:6 11.4786 
2 *32:6 *752:A2 16.4071 
3 *32:6 *754:C 45.9607 
*END

*D_NET *33 0.0263673
*CONN
*I *815:A1 I *D sky130_fd_sc_hd__o211a_1
*I *757:A1 I *D sky130_fd_sc_hd__o21ai_4
*I *821:B I *D sky130_fd_sc_hd__or3_1
*I *755:B1 I *D sky130_fd_sc_hd__a211oi_4
*I *752:X O *D sky130_fd_sc_hd__o21a_2
*CAP
1 *815:A1 0.000272765
2 *757:A1 4.55761e-05
3 *821:B 0.00173291
4 *755:B1 0.00108604
5 *752:X 0.00207616
6 *33:36 0.0038068
7 *33:28 0.00171474
8 *33:16 0.00303024
9 *755:B1 *678:A 0.000353556
10 *755:B1 *740:A2 6.98351e-05
11 *755:B1 *789:A2 0.000332074
12 *755:B1 *35:32 0
13 *755:B1 *37:10 0.000446466
14 *755:B1 *39:52 5.31465e-05
15 *755:B1 *69:30 0.000199208
16 *755:B1 *120:10 4.43516e-05
17 *755:B1 *123:16 2.11419e-05
18 *755:B1 *123:29 0.000368683
19 *755:B1 *124:53 0.000258974
20 *755:B1 *133:123 0.000199173
21 *755:B1 *171:92 7.87026e-07
22 *755:B1 *181:10 4.62147e-05
23 *755:B1 *181:16 0.000342256
24 *755:B1 *198:43 0
25 *757:A1 *89:10 6.05161e-06
26 *757:A1 *144:107 9.41642e-05
27 *815:A1 *701:A 0.000132304
28 *815:A1 *720:C 3.16443e-05
29 *815:A1 *762:A 0.000168206
30 *815:A1 *815:B1 6.13022e-06
31 *815:A1 *54:22 0.000230209
32 *815:A1 *138:30 0.000131803
33 *815:A1 *183:45 2.06112e-05
34 *815:A1 *195:48 0.000114731
35 *821:B *725:A1 0.000115179
36 *821:B *776:C1 5.86935e-05
37 *821:B *777:B1 0.00037101
38 *821:B *788:B1 1.90936e-05
39 *821:B *39:52 7.46146e-05
40 *821:B *56:45 0.000167762
41 *821:B *57:14 0.000150499
42 *821:B *70:26 0.000720161
43 *821:B *71:14 2.06178e-05
44 *821:B *95:16 5.33005e-05
45 *821:B *109:36 0.00072256
46 *821:B *114:16 0
47 *821:B *162:30 0.000454439
48 *821:B *166:12 8.80776e-05
49 *821:B *182:18 0.000586913
50 *821:B *207:28 1.77625e-05
51 *821:B *213:25 0
52 *33:16 *829:B1 0.00077071
53 *33:16 *129:146 0.000478003
54 *33:16 *145:20 0.000425033
55 *33:16 *148:22 2.91117e-05
56 *33:16 *155:10 0.000425616
57 *33:16 *156:25 0.000170436
58 *33:16 *166:45 4.98422e-05
59 *33:28 *697:A 0.000137421
60 *33:28 *816:A 1.10422e-05
61 *33:28 *36:39 1.89507e-06
62 *33:28 *42:28 2.38076e-05
63 *33:28 *170:22 4.00349e-05
64 *33:36 *717:B 0.00067236
65 *33:36 *757:B1 1.56702e-05
66 *33:36 *799:A2 0.000880082
67 *33:36 *39:52 0.000416292
68 *33:36 *124:53 0.000220041
69 *33:36 *137:32 9.8285e-06
70 *33:36 *144:107 0.000531625
71 *33:36 *188:12 7.87026e-07
*RES
1 *752:X *33:16 30.3138 
2 *33:16 *33:28 13.0268 
3 *33:28 *33:36 26.1518 
4 *33:36 *755:B1 31.6607 
5 *33:36 *821:B 36.4199 
6 *33:28 *757:A1 10.2464 
7 *33:16 *815:A1 24.314 
*END

*D_NET *34 0.0236613
*CONN
*I *815:B1 I *D sky130_fd_sc_hd__o211a_1
*I *809:A1 I *D sky130_fd_sc_hd__a21o_1
*I *755:A1 I *D sky130_fd_sc_hd__a211oi_4
*I *753:Y O *D sky130_fd_sc_hd__inv_2
*CAP
1 *815:B1 0.000527191
2 *809:A1 0.000810637
3 *755:A1 0.00237886
4 *753:Y 0.00139641
5 *34:30 0.00374236
6 *34:14 0.00247647
7 *755:A1 *728:A 4.00219e-05
8 *755:A1 *748:B 0.00112029
9 *755:A1 *755:A2 1.90936e-05
10 *755:A1 *781:A 0
11 *755:A1 *784:A2 0.000270255
12 *755:A1 *99:26 4.22498e-05
13 *755:A1 *120:16 0.000165192
14 *755:A1 *124:53 0.00019442
15 *755:A1 *130:20 5.33412e-06
16 *755:A1 *134:28 0.000476144
17 *755:A1 *200:43 1.07167e-05
18 *755:A1 *210:28 0.00193214
19 *809:A1 *709:A1 2.06178e-05