*SPEF "ieee 1481-1999"
*DESIGN "main"
*DATE "17:59:33 Saturday April 26, 2025"
*VENDOR "The OpenROAD Project"
*PROGRAM "OpenROAD"
*VERSION "b16bda7e82721d10566ff7e2b68f1ff0be9f9e38"
*DESIGN_FLOW "NAME_SCOPE LOCAL" "PIN_CAP NONE"
*DIVIDER /
*DELIMITER :
*BUS_DELIMITER []
*T_UNIT 1 NS
*C_UNIT 1 PF
*R_UNIT 1 OHM
*L_UNIT 1 HENRY

*NAME_MAP
*3 in[0]
*4 in[1]
*5 in[2]
*6 in[3]
*7 in[4]
*8 in[5]
*9 in[6]
*10 in[7]
*11 out[0]
*12 out[1]
*13 out[2]
*14 out[3]
*15 out[4]
*16 out[5]
*17 out[6]
*18 out[7]
*19 _00_
*20 _01_
*21 _02_
*22 _03_
*23 _04_
*24 _05_
*25 _06_
*26 _07_
*27 _08_
*28 _09_
*29 net1
*30 net10
*31 net11
*32 net12
*33 net13
*34 net14
*35 net15
*36 net16
*37 net2
*38 net3
*39 net4
*40 net5
*41 net6
*42 net7
*43 net8
*44 net9
*45 FILLER_0_0_16
*46 FILLER_0_0_29
*47 FILLER_0_10_18
*48 FILLER_0_10_26
*49 FILLER_0_10_29
*50 FILLER_0_10_6
*51 FILLER_0_11_15
*52 FILLER_0_11_27
*53 FILLER_0_11_3
*54 FILLER_0_11_42
*55 FILLER_0_12_21
*56 FILLER_0_12_27
*57 FILLER_0_12_29
*58 FILLER_0_12_37
*59 FILLER_0_12_9
*60 FILLER_0_1_10
*61 FILLER_0_1_14
*62 FILLER_0_1_22
*63 FILLER_0_1_34
*64 FILLER_0_1_47
*65 FILLER_0_2_15
*66 FILLER_0_2_27
*67 FILLER_0_2_3
*68 FILLER_0_2_32
*69 FILLER_0_2_47
*70 FILLER_0_3_18
*71 FILLER_0_3_26
*72 FILLER_0_3_30
*73 FILLER_0_3_38
*74 FILLER_0_3_6
*75 FILLER_0_4_15
*76 FILLER_0_4_27
*77 FILLER_0_4_29
*78 FILLER_0_4_3
*79 FILLER_0_4_41
*80 FILLER_0_4_47
*81 FILLER_0_5_11
*82 FILLER_0_5_23
*83 FILLER_0_5_3
*84 FILLER_0_5_35
*85 FILLER_0_5_43
*86 FILLER_0_6_15
*87 FILLER_0_6_27
*88 FILLER_0_6_29
*89 FILLER_0_6_3
*90 FILLER_0_6_41
*91 FILLER_0_6_47
*92 FILLER_0_7_11
*93 FILLER_0_7_23
*94 FILLER_0_7_28
*95 FILLER_0_7_3
*96 FILLER_0_7_40
*97 FILLER_0_8_18
*98 FILLER_0_8_26
*99 FILLER_0_8_29
*100 FILLER_0_8_36
*101 FILLER_0_8_6
*102 FILLER_0_9_15
*103 FILLER_0_9_27
*104 FILLER_0_9_3
*105 FILLER_0_9_33
*106 FILLER_0_9_45
*107 PHY_EDGE_ROW_0_Left_13
*108 PHY_EDGE_ROW_0_Right_0
*109 PHY_EDGE_ROW_10_Left_23
*110 PHY_EDGE_ROW_10_Right_10
*111 PHY_EDGE_ROW_11_Left_24
*112 PHY_EDGE_ROW_11_Right_11
*113 PHY_EDGE_ROW_12_Left_25
*114 PHY_EDGE_ROW_12_Right_12
*115 PHY_EDGE_ROW_1_Left_14
*116 PHY_EDGE_ROW_1_Right_1
*117 PHY_EDGE_ROW_2_Left_15
*118 PHY_EDGE_ROW_2_Right_2
*119 PHY_EDGE_ROW_3_Left_16
*120 PHY_EDGE_ROW_3_Right_3
*121 PHY_EDGE_ROW_4_Left_17
*122 PHY_EDGE_ROW_4_Right_4
*123 PHY_EDGE_ROW_5_Left_18
*124 PHY_EDGE_ROW_5_Right_5
*125 PHY_EDGE_ROW_6_Left_19
*126 PHY_EDGE_ROW_6_Right_6
*127 PHY_EDGE_ROW_7_Left_20
*128 PHY_EDGE_ROW_7_Right_7
*129 PHY_EDGE_ROW_8_Left_21
*130 PHY_EDGE_ROW_8_Right_8
*131 PHY_EDGE_ROW_9_Left_22
*132 PHY_EDGE_ROW_9_Right_9
*133 TAP_TAPCELL_ROW_0_26
*134 TAP_TAPCELL_ROW_10_31
*135 TAP_TAPCELL_ROW_12_32
*136 TAP_TAPCELL_ROW_2_27
*137 TAP_TAPCELL_ROW_4_28
*138 TAP_TAPCELL_ROW_6_29
*139 TAP_TAPCELL_ROW_8_30
*140 _10_
*141 _11_
*142 _12_
*143 _13_
*144 _14_
*145 _15_
*146 _16_
*147 _17_
*148 _18_
*149 _19_
*150 _20_
*151 _21_
*152 _22_
*153 _23_
*154 _24_
*155 _25_
*156 _26_
*157 _27_
*158 input1
*159 input2
*160 input3
*161 input4
*162 input5
*163 input6
*164 input7
*165 input8
*166 output10
*167 output11
*168 output12
*169 output13
*170 output14
*171 output15
*172 output16
*173 output9

*PORTS
in[0] I
in[1] I
in[2] I
in[3] I
in[4] I
in[5] I
in[6] I
in[7] I
out[0] O
out[1] O
out[2] O
out[3] O
out[4] O
out[5] O
out[6] O
out[7] O

*D_NET *3 0.00114897
*CONN
*P in[0] I
*I *158:A I *D sky130_fd_sc_hd__buf_1
*CAP
1 in[0] 0.000574485
2 *158:A 0
3 *3:11 0.000574485
4 *3:11 *4:19 0
*RES
1 in[0] *3:11 31.4739 
2 *3:11 *158:A 23 
*END

*D_NET *4 0.000875402
*CONN
*P in[1] I
*I *159:A I *D sky130_fd_sc_hd__buf_1
*CAP
1 in[1] 0.000409348
2 *159:A 0
3 *4:19 0.000409348
4 *4:19 *160:A 0
5 *4:19 *29:8 5.67058e-05
6 *3:11 *4:19 0
*RES
1 in[1] *4:19 28.7327 
2 *4:19 *159:A 23 
*END

*D_NET *5 0.000625199
*CONN
*P in[2] I
*I *160:A I *D sky130_fd_sc_hd__buf_1
*CAP
1 in[2] 0.000309512
2 *160:A 0.000309512
3 *160:A *6:17 0
4 *160:A *38:8 6.17437e-06
5 *4:19 *160:A 0
*RES
1 in[2] *160:A 49.8062 
*END

*D_NET *6 0.000748754
*CONN
*P in[3] I
*I *161:A I *D sky130_fd_sc_hd__buf_1
*CAP
1 in[3] 0.000374377
2 *161:A 0
3 *6:17 0.000374377
4 *6:17 *7:15 0
5 *6:17 *38:10 0
6 *160:A *6:17 0
*RES
1 in[3] *6:17 28.2148 
2 *6:17 *161:A 23 
*END

*D_NET *7 0.00107371
*CONN
*P in[4] I
*I *162:A I *D sky130_fd_sc_hd__buf_1
*CAP
1 in[4] 0.000499622
2 *162:A 0
3 *7:15 0.000499622
4 *7:15 *8:17 0
5 *7:15 *21:46 3.7877e-05
6 *7:15 *23:12 2.81066e-05
7 *7:15 *23:25 8.48502e-06
8 *7:15 *38:10 0
9 *6:17 *7:15 0
*RES
1 in[4] *7:15 29.7603 
2 *7:15 *162:A 23 
*END

*D_NET *8 0.000779605
*CONN
*P in[5] I
*I *163:A I *D sky130_fd_sc_hd__buf_1
*CAP
1 in[5] 0.000389802
2 *163:A 0
3 *8:17 0.000389802
4 *8:17 *9:15 0
5 *8:17 *38:10 0
6 *7:15 *8:17 0
*RES
1 in[5] *8:17 28.567 
2 *8:17 *163:A 23 
*END

*D_NET *9 0.00126779
*CONN
*P in[6] I
*I *164:A I *D sky130_fd_sc_hd__buf_1
*CAP
1 in[6] 0.000533056
2 *164:A 0
3 *9:15 0.000533056
4 *9:15 *10:11 2.12234e-05
5 *9:15 *43:10 0.000180454
6 *8:17 *9:15 0
*RES
1 in[6] *9:15 30.6186 
2 *9:15 *164:A 23 
*END

*D_NET *10 0.00118889
*CONN
*P in[7] I
*I *165:A I *D sky130_fd_sc_hd__dlymetal6s2s_1
*CAP
1 in[7] 0.000583833
2 *165:A 0
3 *10:11 0.000583833
4 *9:15 *10:11 2.12234e-05
*RES
1 in[7] *10:11 31.8261 
2 *10:11 *165:A 23 
*END

*D_NET *11 0.00123536
*CONN
*P out[0] O
*I *173:X O *D sky130_fd_sc_hd__buf_2
*CAP
1 out[0] 0.00029892
2 *173:X 0.000318757
3 *11:8 0.000617678
4 out[0] out[1] 0
*RES
1 *173:X *11:8 44.6596 
2 *11:8 out[0] 9.10133 
*END

*D_NET *12 0.000456755
*CONN
*P out[1] O
*I *166:X O *D sky130_fd_sc_hd__buf_2
*CAP
1 out[1] 0.000228378
2 *166:X 0.000228378
3 out[1] out[2] 0
4 out[0] out[1] 0
*RES
1 *166:X out[1] 47.0789 
*END

*D_NET *13 0.00108763
*CONN
*P out[2] O
*I *167:X O *D sky130_fd_sc_hd__buf_2
*CAP
1 out[2] 0.00050176
2 *167:X 0.00050176
3 out[2] out[3] 0
4 out[2] *19:23 2.26497e-05
5 out[2] *30:26 3.67546e-05
6 out[2] *42:42 2.47015e-05
7 out[1] out[2] 0
*RES
1 *167:X out[2] 47.68 
*END

*D_NET *14 0.000516172
*CONN
*P out[3] O
*I *168:X O *D sky130_fd_sc_hd__buf_2
*CAP
1 out[3] 0.000243981
2 *168:X 0.000243981
3 out[3] out[4] 0
4 out[3] *32:10 2.82105e-05
5 out[2] out[3] 0
*RES
1 *168:X out[3] 47.4311 
*END

*D_NET *15 0.000463691
*CONN
*P out[4] O
*I *169:X O *D sky130_fd_sc_hd__buf_2
*CAP
1 out[4] 0.000231846
2 *169:X 0.000231846
3 out[4] out[5] 0
4 out[4] *34:14 0
5 out[3] out[4] 0
*RES
1 *169:X out[4] 47.0789 
*END

*D_NET *16 0.00065752
*CONN
*P out[5] O
*I *170:X O *D sky130_fd_sc_hd__buf_2
*CAP
1 out[5] 0.000291705
2 *170:X 0.000291705
3 out[5] out[6] 0
4 out[5] *21:40 5.09988e-05
5 out[5] *38:42 2.31116e-05
6 out[4] out[5] 0
*RES
1 *170:X out[5] 48.4875 
*END

*D_NET *17 0.0014291
*CONN
*P out[6] O
*I *171:X O *D sky130_fd_sc_hd__buf_2
*CAP
1 out[6] 0.000480655
2 *171:X 0.000186461
3 *17:10 0.000667116
4 out[6] out[7] 0
5 *17:10 *18:8 4.68153e-05
6 *17:10 *21:10 0
7 *17:10 *36:10 4.80535e-05
8 *17:10 *42:10 0
9 out[5] out[6] 0
*RES
1 *171:X *17:10 49.1382 
2 *17:10 out[6] 1.35893 
*END

*D_NET *18 0.00146285
*CONN
*P out[7] O
*I *172:X O *D sky130_fd_sc_hd__clkbuf_4
*CAP
1 out[7] 0.000331732
2 *172:X 0.000376288
3 *18:8 0.00070802
4 out[6] out[7] 0
5 *17:10 *18:8 4.68153e-05
*RES
1 *172:X *18:8 45.7161 
2 *18:8 out[7] 9.27307 
*END

*D_NET *19 0.00543412
*CONN
*I *141:B I *D sky130_fd_sc_hd__xnor2_1
*I *156:A I *D sky130_fd_sc_hd__nor2_1
*I *140:Y O *D sky130_fd_sc_hd__nor2_1
*CAP
1 *141:B 0
2 *156:A 0
3 *140:Y 0.000452673
4 *19:23 0.000542881
5 *19:12 0.000497924
6 *19:8 0.00149348
7 *19:8 *26:14 0.000304045
8 *19:12 *26:14 0.00102124
9 *19:12 *28:10 7.45997e-05
10 *19:12 *41:23 0
11 *19:12 *44:26 0.000123881
12 *19:23 *141:A 0
13 *19:23 *20:8 0.000347911
14 *19:23 *26:14 6.25829e-05
15 *19:23 *34:14 0.00021928
16 *19:23 *41:23 0
17 *19:23 *42:42 0.00027098
18 out[2] *19:23 2.26497e-05
*RES
1 *140:Y *19:8 44.3386 
2 *19:8 *19:12 28.5264 
3 *19:12 *156:A 23 
4 *19:8 *19:23 28.2157 
5 *19:23 *141:B 23 
*END

*D_NET *20 0.00160275
*CONN
*I *144:A_N I *D sky130_fd_sc_hd__and2b_1
*I *142:X O *D sky130_fd_sc_hd__o31a_1
*CAP
1 *144:A_N 7.22653e-05
2 *142:X 0.000124556
3 *20:8 0.000196822
4 *144:A_N *147:A 0.000224605
5 *144:A_N *147:B 0.000265472
6 *144:A_N *148:A 2.32101e-05
7 *20:8 *34:14 0.000347911
8 *19:23 *20:8 0.000347911
*RES
1 *142:X *20:8 42.7229 
2 *20:8 *144:A_N 41.0036 
*END

*D_NET *21 0.00811534
*CONN
*I *147:B I *D sky130_fd_sc_hd__and2_1
*I *144:B I *D sky130_fd_sc_hd__and2b_1
*I *146:B I *D sky130_fd_sc_hd__nor2_1
*I *150:D I *D sky130_fd_sc_hd__or4_1
*I *151:A3 I *D sky130_fd_sc_hd__o31ai_1
*I *143:X O *D sky130_fd_sc_hd__or4_2
*CAP
1 *147:B 0.000314383
2 *144:B 0
3 *146:B 0
4 *150:D 7.95996e-05
5 *151:A3 4.84662e-05
6 *143:X 0.000168067
7 *21:59 0.000663748
8 *21:46 0.000563517
9 *21:40 0.00155631
10 *21:21 0.000825896
11 *21:10 0.000319407
12 *147:B *147:A 6.06323e-05
13 *147:B *148:A 1.40958e-05
14 *150:D *150:C 6.17437e-06
15 *150:D *38:42 1.21972e-05
16 *151:A3 *151:A1 9.88574e-06
17 *151:A3 *39:16 4.04598e-06
18 *21:10 *143:A 1.56662e-06
19 *21:21 *36:10 0
20 *21:21 *37:20 1.12487e-05
21 *21:21 *38:42 0.000194318
22 *21:21 *39:22 0.000141888
23 *21:40 *155:A 5.3304e-05
24 *21:40 *155:B 6.52749e-05
25 *21:40 *26:14 4.38375e-05
26 *21:40 *28:10 5.50049e-05
27 *21:40 *34:14 5.41288e-05
28 *21:40 *37:20 1.22803e-05
29 *21:40 *38:42 8.72173e-05
30 *21:40 *39:22 2.77955e-05
31 *21:40 *40:16 0.00019969
32 *21:40 *40:29 5.55278e-05
33 *21:40 *41:6 0.000180212
34 *21:40 *43:34 6.10781e-05
35 *21:40 *43:49 0.000463729
36 *21:46 *23:25 0.000314479
37 *21:46 *40:8 0.000245287
38 *21:59 *147:A 2.93431e-05
39 *21:59 *30:26 0.000118048
40 *21:59 *40:29 0.000304483
41 *21:59 *43:49 0.000394833
42 *21:59 *43:57 0
43 out[5] *21:40 5.09988e-05
44 *144:A_N *147:B 0.000265472
45 *7:15 *21:46 3.7877e-05
46 *17:10 *21:10 0
*RES
1 *143:X *21:10 40.2993 
2 *21:10 *151:A3 38.6214 
3 *21:10 *21:21 3.31429 
4 *21:21 *150:D 39.0979 
5 *21:21 *21:40 46.1364 
6 *21:40 *21:46 27.0764 
7 *21:46 *146:B 23 
8 *21:40 *21:59 24.3629 
9 *21:59 *144:B 23 
10 *21:59 *147:B 28.7586 
*END

*D_NET *22 0.000253429
*CONN
*I *145:A I *D sky130_fd_sc_hd__clkbuf_1
*I *144:X O *D sky130_fd_sc_hd__and2b_1
*CAP
1 *145:A 0
2 *144:X 6.80981e-05
3 *22:8 6.80981e-05
4 *22:8 *40:29 5.86165e-05
5 *22:8 *43:57 5.86165e-05
*RES
1 *144:X *22:8 40.2579 
2 *22:8 *145:A 38 
*END

*D_NET *23 0.00751487
*CONN
*I *148:A I *D sky130_fd_sc_hd__nor2_1
*I *149:B I *D sky130_fd_sc_hd__xnor2_1
*I *146:Y O *D sky130_fd_sc_hd__nor2_1
*CAP
1 *148:A 0.000802774
2 *149:B 0
3 *146:Y 0
4 *23:25 0.00137329
5 *23:12 0.000361146
6 *23:4 0.000931663
7 *148:A *147:A 0.0011329
8 *148:A *148:B 5.67058e-05
9 *148:A *32:10 9.84851e-05
10 *23:12 *149:A 0.000250839
11 *23:12 *154:B 4.07715e-05
12 *23:12 *38:10 0.000678869
13 *23:12 *39:8 5.33597e-05
14 *23:12 *39:16 0.000813756
15 *23:25 *31:12 0.000531932
16 *144:A_N *148:A 2.32101e-05
17 *147:B *148:A 1.40958e-05
18 *7:15 *23:12 2.81066e-05
19 *7:15 *23:25 8.48502e-06
20 *21:46 *23:25 0.000314479
*RES
1 *146:Y *23:4 23 
2 *23:4 *23:12 43.5679 
3 *23:12 *149:B 23 
4 *23:4 *23:25 41.1443 
5 *23:25 *148:A 39.3643 
*END

*D_NET *24 9.50084e-05
*CONN
*I *148:B I *D sky130_fd_sc_hd__nor2_1
*I *147:X O *D sky130_fd_sc_hd__and2_1
*CAP
1 *148:B 1.91513e-05
2 *147:X 1.91513e-05
3 *148:A *148:B 5.67058e-05
*RES
1 *147:X *148:B 46.6214 
*END

*D_NET *25 0.00781172
*CONN
*I *152:A I *D sky130_fd_sc_hd__and2_1
*I *154:B I *D sky130_fd_sc_hd__xor2_1
*I *150:X O *D sky130_fd_sc_hd__or4_1
*CAP
1 *152:A 0
2 *154:B 0.00031388
3 *150:X 0.00107945
4 *25:23 0.000270789
5 *25:8 0.000584669
6 *25:6 0.00107945
7 *154:B *29:14 0.000685418
8 *154:B *39:16 0.000246195
9 *25:6 *38:25 0.00151566
10 *25:23 *29:14 0.00099661
11 *25:23 *39:8 0.000412591
12 *25:23 *39:16 0.00058625
13 *23:12 *154:B 4.07715e-05
*RES
1 *150:X *25:6 39.82 
2 *25:6 *25:8 15 
3 *25:8 *154:B 46.9279 
4 *25:8 *25:23 28.1743 
5 *25:23 *152:A 23 
*END

*D_NET *26 0.00540489
*CONN
*I *152:B I *D sky130_fd_sc_hd__and2_1
*I *151:Y O *D sky130_fd_sc_hd__o31ai_1
*CAP
1 *152:B 0
2 *151:Y 0
3 *26:14 0.00104892
4 *26:6 0.00104892
5 *26:14 *140:A 0.00013507
6 *26:14 *143:C 0
7 *26:14 *27:8 0.000388717
8 *26:14 *34:14 0.000845624
9 *26:14 *35:10 0
10 *26:14 *37:20 0.000169674
11 *26:14 *42:42 9.30054e-05
12 *26:14 *43:49 0.000141954
13 *26:14 *44:26 0.000101305
14 *19:8 *26:14 0.000304045
15 *19:12 *26:14 0.00102124
16 *19:23 *26:14 6.25829e-05
17 *21:40 *26:14 4.38375e-05
*RES
1 *151:Y *26:6 38 
2 *26:6 *26:14 47.3557 
3 *26:14 *152:B 23 
*END

*D_NET *27 0.00264416
*CONN
*I *153:A I *D sky130_fd_sc_hd__clkbuf_1
*I *152:X O *D sky130_fd_sc_hd__and2_1
*CAP
1 *153:A 0.000597075
2 *152:X 0.000519131
3 *27:8 0.00111621
4 *153:A *41:6 2.30292e-05
5 *153:A *43:49 0
6 *26:14 *27:8 0.000388717
*RES
1 *152:X *27:8 45.7679 
2 *27:8 *153:A 48.9786 
*END

*D_NET *28 0.000490956
*CONN
*I *156:B I *D sky130_fd_sc_hd__nor2_1
*I *155:X O *D sky130_fd_sc_hd__and2_1
*CAP
1 *156:B 0
2 *155:X 0.000156514
3 *28:10 0.000156514
4 *28:10 *143:C 4.55577e-05
5 *28:10 *41:23 2.76611e-06
6 *19:12 *28:10 7.45997e-05
7 *21:40 *28:10 5.50049e-05
*RES
1 *155:X *28:10 40.8793 
2 *28:10 *156:B 38 
*END

*D_NET *29 0.00645199
*CONN
*I *154:A I *D sky130_fd_sc_hd__xor2_1
*I *158:X O *D sky130_fd_sc_hd__buf_1
*CAP
1 *154:A 0
2 *158:X 7.88413e-05
3 *29:14 0.000978103
4 *29:8 0.00105694
5 *29:14 *31:12 0
6 *29:14 *37:10 0.00206422
7 *29:14 *38:10 0
8 *29:14 *39:8 8.15327e-05
9 *29:14 *39:16 0.000453613
10 *154:B *29:14 0.000685418
11 *4:19 *29:8 5.67058e-05
12 *25:23 *29:14 0.00099661
*RES
1 *158:X *29:8 39.0979 
2 *29:8 *29:14 49.9864 
3 *29:14 *154:A 23 
*END

*D_NET *30 0.00613092
*CONN
*I *166:A I *D sky130_fd_sc_hd__buf_2
*I *153:X O *D sky130_fd_sc_hd__clkbuf_1
*CAP
1 *166:A 0
2 *153:X 0.000199056
3 *30:26 0.00155053
4 *30:12 0.00174959
5 *30:12 *43:34 2.33476e-05
6 *30:12 *44:12 0
7 *30:26 *40:29 0.000239457
8 *30:26 *42:23 0.000173513
9 *30:26 *44:26 0.00204063
10 out[2] *30:26 3.67546e-05
11 *21:59 *30:26 0.000118048
*RES
1 *153:X *30:12 46.6776 
2 *30:12 *30:26 47.2995 
3 *30:26 *166:A 23 
*END

*D_NET *31 0.00508159
*CONN
*I *167:A I *D sky130_fd_sc_hd__buf_2
*I *149:Y O *D sky130_fd_sc_hd__xnor2_1
*CAP
1 *167:A 0.000560153
2 *149:Y 0.000124497
3 *31:12 0.00181688
4 *31:8 0.00138122
5 *167:A *142:A3 9.84851e-05
6 *167:A *40:29 0.000183788
7 *167:A *43:57 0.000193385
8 *31:8 *39:16 0.000191255
9 *23:25 *31:12 0.000531932
10 *29:14 *31:12 0
*RES
1 *149:Y *31:8 40.0507 
2 *31:8 *31:12 39.4429 
3 *31:12 *167:A 34.5793 
*END

*D_NET *32 0.000541073
*CONN
*I *168:A I *D sky130_fd_sc_hd__buf_2
*I *148:Y O *D sky130_fd_sc_hd__nor2_1
*CAP
1 *168:A 0
2 *148:Y 0.000135133
3 *32:10 0.000135133
4 *32:10 *169:A 0.00014411
5 out[3] *32:10 2.82105e-05
6 *148:A *32:10 9.84851e-05
*RES
1 *148:Y *32:10 41.0036 
2 *32:10 *168:A 38 
*END

*D_NET *33 0.00268641
*CONN
*I *169:A I *D sky130_fd_sc_hd__buf_2
*I *145:X O *D sky130_fd_sc_hd__clkbuf_1
*CAP
1 *169:A 0.000392703
2 *145:X 0.000486588
3 *33:8 0.000879291
4 *169:A *34:14 0.00078372
5 *32:10 *169:A 0.00014411
*RES
1 *145:X *33:8 43.3857 
2 *33:8 *169:A 48.9786 
*END

*D_NET *34 0.00398055
*CONN
*I *170:A I *D sky130_fd_sc_hd__buf_2
*I *141:Y O *D sky130_fd_sc_hd__xnor2_1
*CAP
1 *170:A 0
2 *141:Y 4.50142e-05
3 *34:14 0.000819929
4 *34:8 0.000864944
5 out[4] *34:14 0
6 *169:A *34:14 0.00078372
7 *19:23 *34:14 0.00021928
8 *20:8 *34:14 0.000347911
9 *21:40 *34:14 5.41288e-05
10 *26:14 *34:14 0.000845624
*RES
1 *141:Y *34:8 38.6214 
2 *34:8 *34:14 38.0757 
3 *34:14 *170:A 23 
*END

*D_NET *35 0.000505597
*CONN
*I *171:A I *D sky130_fd_sc_hd__buf_2
*I *156:Y O *D sky130_fd_sc_hd__nor2_1
*CAP
1 *171:A 0
2 *156:Y 0.000164871
3 *35:10 0.000164871
4 *35:10 *36:10 0.000138718
5 *35:10 *37:12 3.71369e-05
6 *35:10 *37:20 0
7 *26:14 *35:10 0
*RES
1 *156:Y *35:10 41.0036 
2 *35:10 *171:A 38 
*END

*D_NET *36 0.00137258
*CONN
*I *172:A I *D sky130_fd_sc_hd__clkbuf_4
*I *157:X O *D sky130_fd_sc_hd__clkbuf_1
*CAP
1 *172:A 0
2 *157:X 0.000384425
3 *36:10 0.000384425
4 *36:10 *143:C 0.000317228
5 *36:10 *37:12 7.37167e-05
6 *36:10 *42:10 2.60152e-05
7 *17:10 *36:10 4.80535e-05
8 *21:21 *36:10 0
9 *35:10 *36:10 0.000138718
*RES
1 *157:X *36:10 45.6021 
2 *36:10 *172:A 38 
*END

*D_NET *37 0.00783525
*CONN
*I *150:C I *D sky130_fd_sc_hd__or4_1
*I *151:B1 I *D sky130_fd_sc_hd__o31ai_1
*I *159:X O *D sky130_fd_sc_hd__buf_1
*CAP
1 *150:C 5.05555e-05
2 *151:B1 0
3 *159:X 0
4 *37:20 0.000109856
5 *37:12 0.000743928
6 *37:10 0.00167185
7 *37:6 0.00108834
8 *150:C *38:25 5.50106e-05
9 *150:C *38:42 4.17736e-05
10 *37:12 *38:25 0.00147479
11 *37:20 *39:16 5.50049e-05
12 *37:20 *39:22 0.000169683
13 *150:D *150:C 6.17437e-06
14 *21:21 *37:20 1.12487e-05
15 *21:40 *37:20 1.22803e-05
16 *26:14 *37:20 0.000169674
17 *29:14 *37:10 0.00206422
18 *35:10 *37:12 3.71369e-05
19 *35:10 *37:20 0
20 *36:10 *37:12 7.37167e-05
*RES
1 *159:X *37:6 38 
2 *37:6 *37:10 42.26 
3 *37:10 *37:12 16.3436 
4 *37:12 *37:20 33.5836 
5 *37:20 *151:B1 23 
6 *37:12 *150:C 24.0979 
*END

*D_NET *38 0.00855551
*CONN
*I *151:A2 I *D sky130_fd_sc_hd__o31ai_1
*I *150:B I *D sky130_fd_sc_hd__or4_1
*I *149:A I *D sky130_fd_sc_hd__xnor2_1
*I *160:X O *D sky130_fd_sc_hd__buf_1
*CAP
1 *151:A2 0
2 *150:B 2.34823e-05
3 *149:A 0.000190884
4 *160:X 8.81661e-05
5 *38:42 0.000260439
6 *38:25 0.000796445
7 *38:10 0.00159124
8 *38:8 0.000975997
9 *149:A *39:16 1.32314e-05
10 *38:10 *39:8 0.000259354
11 *38:42 *151:A1 1.6318e-05
12 out[5] *38:42 2.31116e-05
13 *150:C *38:25 5.50106e-05
14 *150:C *38:42 4.17736e-05
15 *150:D *38:42 1.21972e-05
16 *160:A *38:8 6.17437e-06
17 *6:17 *38:10 0
18 *7:15 *38:10 0
19 *8:17 *38:10 0
20 *21:21 *38:42 0.000194318
21 *21:40 *38:42 8.72173e-05
22 *23:12 *149:A 0.000250839
23 *23:12 *38:10 0.000678869
24 *25:6 *38:25 0.00151566
25 *29:14 *38:10 0
26 *37:12 *38:25 0.00147479
*RES
1 *160:X *38:8 39.0979 
2 *38:8 *38:10 21.2736 
3 *38:10 *149:A 42.4121 
4 *38:10 *38:25 34.2021 
5 *38:25 *150:B 23.4971 
6 *38:25 *38:42 35.1475 
7 *38:42 *151:A2 23 
*END

*D_NET *39 0.00965219
*CONN
*I *147:A I *D sky130_fd_sc_hd__and2_1
*I *146:A I *D sky130_fd_sc_hd__nor2_1
*I *151:A1 I *D sky130_fd_sc_hd__o31ai_1
*I *150:A I *D sky130_fd_sc_hd__or4_1
*I *161:X O *D sky130_fd_sc_hd__buf_1
*CAP
1 *147:A 0.000705534
2 *146:A 0
3 *151:A1 0.00013054
4 *150:A 0
5 *161:X 0
6 *39:22 5.03899e-05
7 *39:16 0.00144369
8 *39:8 0.00144801
9 *39:4 0.000890784
10 *144:A_N *147:A 0.000224605
11 *147:B *147:A 6.06323e-05
12 *148:A *147:A 0.0011329
13 *149:A *39:16 1.32314e-05
14 *151:A3 *151:A1 9.88574e-06
15 *151:A3 *39:16 4.04598e-06
16 *154:B *39:16 0.000246195
17 *21:21 *39:22 0.000141888
18 *21:40 *39:22 2.77955e-05
19 *21:59 *147:A 2.93431e-05
20 *23:12 *39:8 5.33597e-05
21 *23:12 *39:16 0.000813756
22 *25:23 *39:8 0.000412591
23 *25:23 *39:16 0.00058625
24 *29:14 *39:8 8.15327e-05
25 *29:14 *39:16 0.000453613
26 *31:8 *39:16 0.000191255
27 *37:20 *39:16 5.50049e-05
28 *37:20 *39:22 0.000169683
29 *38:10 *39:8 0.000259354
30 *38:42 *151:A1 1.6318e-05
*RES
1 *161:X *39:4 23 
2 *39:4 *39:8 22.54 
3 *39:8 *39:16 44.4557 
4 *39:16 *39:22 32.2579 
5 *39:22 *150:A 23 
6 *39:16 *151:A1 25.0714 
7 *39:8 *146:A 38 
8 *39:4 *147:A 40.6693 
*END

*D_NET *40 0.00835792
*CONN
*I *142:B1 I *D sky130_fd_sc_hd__o31a_1
*I *143:D I *D sky130_fd_sc_hd__or4_2
*I *162:X O *D sky130_fd_sc_hd__buf_1
*CAP
1 *142:B1 0
2 *143:D 0
3 *162:X 0.000800114
4 *40:29 0.000809485
5 *40:16 0.000656723
6 *40:8 0.00226632
7 *40:16 *143:A 0.000118513
8 *40:16 *143:B 4.21378e-05
9 *40:16 *143:C 0.000280289
10 *40:16 *42:6 1.94693e-05
11 *40:16 *42:10 0.000594144
12 *40:16 *42:23 0.000369589
13 *40:16 *43:10 0
14 *40:16 *43:21 0
15 *40:16 *43:34 1.00806e-05
16 *40:29 *142:A3 6.51746e-05
17 *40:29 *41:23 0.00027136
18 *40:29 *42:23 0.000543964
19 *40:29 *42:42 0.000223704
20 *40:29 *43:57 0
21 *167:A *40:29 0.000183788
22 *21:40 *40:16 0.00019969
23 *21:40 *40:29 5.55278e-05
24 *21:46 *40:8 0.000245287
25 *21:59 *40:29 0.000304483
26 *22:8 *40:29 5.86165e-05
27 *30:26 *40:29 0.000239457
*RES
1 *162:X *40:8 49.1029 
2 *40:8 *40:16 32.6279 
3 *40:16 *143:D 23 
4 *40:8 *40:29 36.4186 
5 *40:29 *142:B1 23 
*END

*D_NET *41 0.00950024
*CONN
*I *141:A I *D sky130_fd_sc_hd__xnor2_1
*I *142:A3 I *D sky130_fd_sc_hd__o31a_1
*I *143:C I *D sky130_fd_sc_hd__or4_2
*I *163:X O *D sky130_fd_sc_hd__buf_1
*CAP
1 *141:A 0.000250542
2 *142:A3 0.00010822
3 *143:C 0.000346435
4 *163:X 0.00115411
5 *41:23 0.0011564
6 *41:8 0.00114407
7 *41:6 0.00115411
8 *141:A *43:57 0
9 *142:A3 *42:42 0.000223704
10 *142:A3 *43:57 0.000397602
11 *143:C *143:A 1.32939e-05
12 *143:C *143:B 0.000267173
13 *143:C *42:10 0.000522866
14 *41:6 *155:B 1.41077e-05
15 *41:23 *42:10 4.92689e-05
16 *41:23 *42:23 0.000917314
17 *41:23 *42:42 0.000182296
18 *41:23 *43:57 0
19 *41:23 *44:26 0.000314627
20 *153:A *41:6 2.30292e-05
21 *167:A *142:A3 9.84851e-05
22 *19:12 *41:23 0
23 *19:23 *141:A 0
24 *19:23 *41:23 0
25 *21:40 *41:6 0.000180212
26 *26:14 *143:C 0
27 *28:10 *143:C 4.55577e-05
28 *28:10 *41:23 2.76611e-06
29 *36:10 *143:C 0.000317228
30 *40:16 *143:C 0.000280289
31 *40:29 *142:A3 6.51746e-05
32 *40:29 *41:23 0.00027136
*RES
1 *163:X *41:6 37.4379 
2 *41:6 *41:8 15 
3 *41:8 *143:C 49.165 
4 *41:8 *41:23 20.9214 
5 *41:23 *142:A3 42.9093 
6 *41:23 *141:A 42.06 
*END

*D_NET *42 0.00962359
*CONN
*I *143:A I *D sky130_fd_sc_hd__or4_2
*I *142:A1 I *D sky130_fd_sc_hd__o31a_1
*I *140:A I *D sky130_fd_sc_hd__nor2_1
*I *155:A I *D sky130_fd_sc_hd__and2_1
*I *164:X O *D sky130_fd_sc_hd__buf_1
*CAP
1 *143:A 0.000374135
2 *142:A1 0
3 *140:A 0.000263817
4 *155:A 2.32701e-05
5 *164:X 0.000610941
6 *42:42 0.000473169
7 *42:23 0.000992843
8 *42:10 0.0005848
9 *42:6 0.00129075
10 *140:A *43:49 0.000140259
11 *155:A *155:B 5.3304e-05
12 *42:6 *143:B 1.90232e-05
13 *42:6 *43:10 0.000241004
14 out[2] *42:42 2.47015e-05
15 *142:A3 *42:42 0.000223704
16 *143:C *143:A 1.32939e-05
17 *143:C *42:10 0.000522866
18 *17:10 *42:10 0
19 *19:23 *42:42 0.00027098
20 *21:10 *143:A 1.56662e-06
21 *21:40 *155:A 5.3304e-05
22 *26:14 *140:A 0.00013507
23 *26:14 *42:42 9.30054e-05
24 *30:26 *42:23 0.000173513
25 *36:10 *42:10 2.60152e-05
26 *40:16 *143:A 0.000118513
27 *40:16 *42:6 1.94693e-05
28 *40:16 *42:10 0.000594144
29 *40:16 *42:23 0.000369589
30 *40:29 *42:23 0.000543964
31 *40:29 *42:42 0.000223704
32 *41:23 *42:10 4.92689e-05
33 *41:23 *42:23 0.000917314
34 *41:23 *42:42 0.000182296
*RES
1 *164:X *42:6 32.1971 
2 *42:6 *42:10 24.3007 
3 *42:10 *155:A 38.6214 
4 *42:10 *42:23 27.1179 
5 *42:23 *140:A 27.93 
6 *42:23 *42:42 42.47 
7 *42:42 *142:A1 23 
8 *42:6 *143:A 28.7586 
*END

*D_NET *43 0.00863818
*CONN
*I *140:B I *D sky130_fd_sc_hd__nor2_1
*I *142:A2 I *D sky130_fd_sc_hd__o31a_1
*I *155:B I *D sky130_fd_sc_hd__and2_1
*I *157:A I *D sky130_fd_sc_hd__clkbuf_1
*I *143:B I *D sky130_fd_sc_hd__or4_2
*I *165:X O *D sky130_fd_sc_hd__dlymetal6s2s_1
*CAP
1 *140:B 0
2 *142:A2 0
3 *155:B 0.000152244
4 *157:A 0
5 *143:B 0.000417212
6 *165:X 0.000496033
7 *43:57 0.000865847
8 *43:49 0.00133064
9 *43:34 0.000881104
10 *43:21 0.000539278
11 *43:10 0.00118846
12 *43:21 *44:12 0
13 *140:A *43:49 0.000140259
14 *141:A *43:57 0
15 *142:A3 *43:57 0.000397602
16 *143:C *143:B 0.000267173
17 *153:A *43:49 0
18 *155:A *155:B 5.3304e-05
19 *167:A *43:57 0.000193385
20 *9:15 *43:10 0.000180454
21 *21:40 *155:B 6.52749e-05
22 *21:40 *43:34 6.10781e-05
23 *21:40 *43:49 0.000463729
24 *21:59 *43:49 0.000394833
25 *21:59 *43:57 0
26 *22:8 *43:57 5.86165e-05
27 *26:14 *43:49 0.000141954
28 *30:12 *43:34 2.33476e-05
29 *40:16 *143:B 4.21378e-05
30 *40:16 *43:10 0
31 *40:16 *43:21 0
32 *40:16 *43:34 1.00806e-05
33 *40:29 *43:57 0
34 *41:6 *155:B 1.41077e-05
35 *41:23 *43:57 0
36 *42:6 *143:B 1.90232e-05
37 *42:6 *43:10 0.000241004
*RES
1 *165:X *43:10 49.9521 
2 *43:10 *143:B 43.8621 
3 *43:10 *43:21 4.72286 
4 *43:21 *157:A 38 
5 *43:21 *43:34 4.08071 
6 *43:34 *155:B 40.5271 
7 *43:34 *43:49 27.9879 
8 *43:49 *43:57 47.1929 
9 *43:57 *142:A2 23 
10 *43:49 *140:B 23 
*END

*D_NET *44 0.00703449
*CONN
*I *173:A I *D sky130_fd_sc_hd__buf_2
*I *154:X O *D sky130_fd_sc_hd__xor2_1
*CAP
1 *173:A 0
2 *154:X 0.000517409
3 *44:26 0.00170961
4 *44:12 0.00222702
5 *19:12 *44:26 0.000123881
6 *26:14 *44:26 0.000101305
7 *30:12 *44:12 0
8 *30:26 *44:26 0.00204063
9 *41:23 *44:26 0.000314627
10 *43:21 *44:12 0
*RES
1 *154:X *44:12 47.8884 
2 *44:12 *44:26 47.0955 
3 *44:26 *173:A 23 
*END
