*SPEF "ieee 1481-1999"
*DESIGN "main"
*DATE "17:59:35 Saturday April 26, 2025"
*VENDOR "The OpenROAD Project"
*PROGRAM "OpenROAD"
*VERSION "b16bda7e82721d10566ff7e2b68f1ff0be9f9e38"
*DESIGN_FLOW "NAME_SCOPE LOCAL" "PIN_CAP NONE"
*DIVIDER /
*DELIMITER :
*BUS_DELIMITER []
*T_UNIT 1 NS
*C_UNIT 1 PF
*R_UNIT 1 OHM
*L_UNIT 1 HENRY

*NAME_MAP
*3 in[0]
*4 in[1]
*5 in[2]
*6 in[3]
*7 in[4]
*8 in[5]
*9 in[6]
*10 in[7]
*11 out[0]
*12 out[1]
*13 out[2]
*14 out[3]
*15 out[4]
*16 out[5]
*17 out[6]
*18 out[7]
*19 _00_
*20 _01_
*21 _02_
*22 _03_
*23 _04_
*24 _05_
*25 _06_
*26 _07_
*27 _08_
*28 _09_
*29 net1
*30 net10
*31 net11
*32 net12
*33 net13
*34 net14
*35 net15
*36 net16
*37 net2
*38 net3
*39 net4
*40 net5
*41 net6
*42 net7
*43 net8
*44 net9
*45 FILLER_0_0_16
*46 FILLER_0_0_29
*47 FILLER_0_10_18
*48 FILLER_0_10_26
*49 FILLER_0_10_29
*50 FILLER_0_10_6
*51 FILLER_0_11_15
*52 FILLER_0_11_27
*53 FILLER_0_11_3
*54 FILLER_0_11_42
*55 FILLER_0_12_21
*56 FILLER_0_12_27
*57 FILLER_0_12_29
*58 FILLER_0_12_37
*59 FILLER_0_12_9
*60 FILLER_0_1_10
*61 FILLER_0_1_14
*62 FILLER_0_1_22
*63 FILLER_0_1_34
*64 FILLER_0_1_47
*65 FILLER_0_2_15
*66 FILLER_0_2_27
*67 FILLER_0_2_3
*68 FILLER_0_2_32
*69 FILLER_0_2_47
*70 FILLER_0_3_18
*71 FILLER_0_3_26
*72 FILLER_0_3_30
*73 FILLER_0_3_38
*74 FILLER_0_3_6
*75 FILLER_0_4_15
*76 FILLER_0_4_27
*77 FILLER_0_4_29
*78 FILLER_0_4_3
*79 FILLER_0_4_41
*80 FILLER_0_4_47
*81 FILLER_0_5_11
*82 FILLER_0_5_23
*83 FILLER_0_5_3
*84 FILLER_0_5_35
*85 FILLER_0_5_43
*86 FILLER_0_6_15
*87 FILLER_0_6_27
*88 FILLER_0_6_29
*89 FILLER_0_6_3
*90 FILLER_0_6_41
*91 FILLER_0_6_47
*92 FILLER_0_7_11
*93 FILLER_0_7_23
*94 FILLER_0_7_28
*95 FILLER_0_7_3
*96 FILLER_0_7_40
*97 FILLER_0_8_18
*98 FILLER_0_8_26
*99 FILLER_0_8_29
*100 FILLER_0_8_36
*101 FILLER_0_8_6
*102 FILLER_0_9_15
*103 FILLER_0_9_27
*104 FILLER_0_9_3
*105 FILLER_0_9_33
*106 FILLER_0_9_45
*107 PHY_EDGE_ROW_0_Left_13
*108 PHY_EDGE_ROW_0_Right_0
*109 PHY_EDGE_ROW_10_Left_23
*110 PHY_EDGE_ROW_10_Right_10
*111 PHY_EDGE_ROW_11_Left_24
*112 PHY_EDGE_ROW_11_Right_11
*113 PHY_EDGE_ROW_12_Left_25
*114 PHY_EDGE_ROW_12_Right_12
*115 PHY_EDGE_ROW_1_Left_14
*116 PHY_EDGE_ROW_1_Right_1
*117 PHY_EDGE_ROW_2_Left_15
*118 PHY_EDGE_ROW_2_Right_2
*119 PHY_EDGE_ROW_3_Left_16
*120 PHY_EDGE_ROW_3_Right_3
*121 PHY_EDGE_ROW_4_Left_17
*122 PHY_EDGE_ROW_4_Right_4
*123 PHY_EDGE_ROW_5_Left_18
*124 PHY_EDGE_ROW_5_Right_5
*125 PHY_EDGE_ROW_6_Left_19
*126 PHY_EDGE_ROW_6_Right_6
*127 PHY_EDGE_ROW_7_Left_20
*128 PHY_EDGE_ROW_7_Right_7
*129 PHY_EDGE_ROW_8_Left_21
*130 PHY_EDGE_ROW_8_Right_8
*131 PHY_EDGE_ROW_9_Left_22
*132 PHY_EDGE_ROW_9_Right_9
*133 TAP_TAPCELL_ROW_0_26
*134 TAP_TAPCELL_ROW_10_31
*135 TAP_TAPCELL_ROW_12_32
*136 TAP_TAPCELL_ROW_2_27
*137 TAP_TAPCELL_ROW_4_28
*138 TAP_TAPCELL_ROW_6_29
*139 TAP_TAPCELL_ROW_8_30
*140 _10_
*141 _11_
*142 _12_
*143 _13_
*144 _14_
*145 _15_
*146 _16_
*147 _17_
*148 _18_
*149 _19_
*150 _20_
*151 _21_
*152 _22_
*153 _23_
*154 _24_
*155 _25_
*156 _26_
*157 _27_
*158 input1
*159 input2
*160 input3
*161 input4
*162 input5
*163 input6
*164 input7
*165 input8
*166 output10
*167 output11
*168 output12
*169 output13
*170 output14
*171 output15
*172 output16
*173 output9

*PORTS
in[0] I
in[1] I
in[2] I
in[3] I
in[4] I
in[5] I
in[6] I
in[7] I
out[0] O
out[1] O
out[2] O
out[3] O
out[4] O
out[5] O
out[6] O
out[7] O

*D_NET *3 0.00108348
*CONN
*P in[0] I
*I *158:A I *D sky130_fd_sc_hd__buf_1
*CAP
1 in[0] 0.000541738
2 *158:A 0.000541738
3 *158:A *159:A 0
*RES
1 in[0] *158:A 24.4979 
*END

*D_NET *4 0.00082408
*CONN
*P in[1] I
*I *159:A I *D sky130_fd_sc_hd__buf_1
*CAP
1 in[1] 0.000383467
2 *159:A 0.000383467
3 *159:A *160:A 0
4 *159:A *29:14 5.71472e-05
5 *158:A *159:A 0
*RES
1 in[1] *159:A 22.141 
*END

*D_NET *5 0.000579283
*CONN
*P in[2] I
*I *160:A I *D sky130_fd_sc_hd__buf_1
*CAP
1 in[2] 0.000286616
2 *160:A 0.000286616
3 *160:A *161:A 0
4 *160:A *38:10 6.05161e-06
5 *159:A *160:A 0
*RES
1 in[2] *160:A 20.4803 
*END

*D_NET *6 0.00069643
*CONN
*P in[3] I
*I *161:A I *D sky130_fd_sc_hd__buf_1
*CAP
1 in[3] 0.000348215
2 *161:A 0.000348215
3 *161:A *162:A 0
4 *161:A *38:10 0
5 *160:A *161:A 0
*RES
1 in[3] *161:A 21.6946 
*END

*D_NET *7 0.000951993
*CONN
*P in[4] I
*I *162:A I *D sky130_fd_sc_hd__buf_1
*CAP
1 in[4] 0.000439628
2 *162:A 0.000439628
3 *162:A *146:B 3.63587e-05
4 *162:A *148:A 8.43535e-06
5 *162:A *149:B 2.79421e-05
6 *162:A *163:A 0
7 *162:A *38:10 0
8 *161:A *162:A 0
*RES
1 in[4] *162:A 23.0304 
*END

*D_NET *8 0.000726137
*CONN
*P in[5] I
*I *163:A I *D sky130_fd_sc_hd__buf_1
*CAP
1 in[5] 0.000363069
2 *163:A 0.000363069
3 *163:A *164:A 0
4 *163:A *38:10 0
5 *162:A *163:A 0
*RES
1 in[5] *163:A 21.9981 
*END

*D_NET *9 0.00118609
*CONN
*P in[6] I
*I *164:A I *D sky130_fd_sc_hd__buf_1
*CAP
1 in[6] 0.00049571
2 *164:A 0.00049571
3 *164:A *165:A 2.05484e-05
4 *164:A *43:10 0.00017412
5 *163:A *164:A 0
*RES
1 in[6] *164:A 23.7644 
*END

*D_NET *10 0.00111787
*CONN
*P in[7] I
*I *165:A I *D sky130_fd_sc_hd__dlymetal6s2s_1
*CAP
1 in[7] 0.000548662
2 *165:A 0.000548662
3 *164:A *165:A 2.05484e-05
*RES
1 in[7] *165:A 24.8014 
*END

*D_NET *11 0.00116601
*CONN
*P out[0] O
*I *173:X O *D sky130_fd_sc_hd__buf_2
*CAP
1 out[0] 0.000583005
2 *173:X 0.000583005
3 out[0] out[1] 0
*RES
1 *173:X out[0] 23.8754 
*END

*D_NET *12 0.000432378
*CONN
*P out[1] O
*I *166:X O *D sky130_fd_sc_hd__buf_2
*CAP
1 out[1] 0.000216189
2 *166:X 0.000216189
3 out[1] out[2] 0
4 out[0] out[1] 0
*RES
1 *166:X out[1] 18.1229 
*END

*D_NET *13 0.00102994
*CONN
*P out[2] O
*I *167:X O *D sky130_fd_sc_hd__buf_2
*CAP
1 out[2] 0.000474158
2 *167:X 0.000474158
3 out[2] out[3] 0
4 out[2] *141:B 2.06178e-05
5 out[2] *142:A1 2.22043e-05
6 out[2] *166:A 3.87979e-05
7 out[1] out[2] 0
*RES
1 *167:X out[2] 18.6273 
*END

*D_NET *14 0.000489995
*CONN
*P out[3] O
*I *168:X O *D sky130_fd_sc_hd__buf_2
*CAP
1 out[3] 0.000231517
2 *168:X 0.000231517
3 out[3] out[4] 0
4 out[3] *168:A 2.69614e-05
5 out[2] out[3] 0
*RES
1 *168:X out[3] 18.4264 
*END

*D_NET *15 0.000437128
*CONN
*P out[4] O
*I *169:X O *D sky130_fd_sc_hd__buf_2
*CAP
1 out[4] 0.000218564
2 *169:X 0.000218564
3 out[4] out[5] 0
4 out[4] *170:A 0
5 out[3] out[4] 0
*RES
1 *169:X out[4] 18.1229 
*END

*D_NET *16 0.000607662
*CONN
*P out[5] O
*I *170:X O *D sky130_fd_sc_hd__buf_2
*CAP
1 out[5] 0.000268872
2 *170:X 0.000268872
3 out[5] out[6] 0
4 out[5] *151:A2 2.09826e-05
5 out[5] *21:40 4.8936e-05
6 out[4] out[5] 0
*RES
1 *170:X out[5] 19.3371 
*END

*D_NET *17 0.00132175
*CONN
*P out[6] O
*I *171:X O *D sky130_fd_sc_hd__buf_2
*CAP
1 out[6] 0.000615204
2 *171:X 0.000615204
3 out[6] out[7] 4.28365e-05
4 out[6] *172:A 4.85029e-05
5 out[6] *21:10 0
6 out[6] *42:10 0
7 out[5] out[6] 0
*RES
1 *171:X out[6] 21.0559 
*END

*D_NET *18 0.00137605
*CONN
*P out[7] O
*I *172:X O *D sky130_fd_sc_hd__clkbuf_4
*CAP
1 out[7] 0.000666605
2 *172:X 0.000666605
3 out[6] out[7] 4.28365e-05
*RES
1 *172:X out[7] 24.9303 
*END

*D_NET *19 0.00487675
*CONN
*I *141:B I *D sky130_fd_sc_hd__xnor2_1
*I *156:A I *D sky130_fd_sc_hd__nor2_1
*I *140:Y O *D sky130_fd_sc_hd__nor2_1
*CAP
1 *141:B 0.000443949
2 *156:A 0.000427188
3 *140:Y 0.000417494
4 *19:8 0.00128863
5 *141:B *141:A 0
6 *141:B *142:A1 0.000260107
7 *141:B *144:A_N 0.000314813
8 *141:B *170:A 0.000210575
9 *141:B *26:14 5.66157e-05
10 *141:B *41:23 0
11 *156:A *156:B 7.17836e-05
12 *156:A *173:A 0.000145849
13 *156:A *26:14 0.000920528
14 *156:A *41:23 0
15 *19:8 *26:14 0.000298598
16 out[2] *141:B 2.06178e-05
*RES
1 *140:Y *19:8 19.2643 
2 *19:8 *156:A 25.4607 
3 *19:8 *141:B 25.1929 
*END

*D_NET *20 0.00145019
*CONN
*I *144:A_N I *D sky130_fd_sc_hd__and2b_1
*I *142:X O *D sky130_fd_sc_hd__o31a_1
*CAP
1 *144:A_N 0.000152807
2 *142:X 0.000152807
3 *144:A_N *147:A 0.000225616
4 *144:A_N *147:B 0.000266479
5 *144:A_N *148:A 2.28598e-05
6 *144:A_N *170:A 0.000314813
7 *141:B *144:A_N 0.000314813
*RES
1 *142:X *144:A_N 34.2607 
*END

*D_NET *21 0.00734232
*CONN
*I *147:B I *D sky130_fd_sc_hd__and2_1
*I *144:B I *D sky130_fd_sc_hd__and2b_1
*I *146:B I *D sky130_fd_sc_hd__nor2_1
*I *150:D I *D sky130_fd_sc_hd__or4_1
*I *151:A3 I *D sky130_fd_sc_hd__o31ai_1
*I *143:X O *D sky130_fd_sc_hd__or4_2
*CAP
1 *147:B 0.000274633
2 *144:B 0
3 *146:B 0.00050317
4 *150:D 6.792e-05
5 *151:A3 4.42861e-05
6 *143:X 0.000152103
7 *21:59 0.000562705
8 *21:40 0.00132716
9 *21:21 0.000689705
10 *21:10 0.000282252
11 *146:B *148:A 0.000310524
12 *146:B *40:8 0.000249091
13 *147:B *147:A 5.87086e-05
14 *147:B *148:A 1.39726e-05
15 *150:D *150:C 6.05161e-06
16 *150:D *151:A2 1.21258e-05
17 *151:A3 *151:A1 9.99644e-06
18 *151:A3 *39:16 4.0342e-06
19 *21:10 *143:A 1.58213e-06
20 *21:21 *150:A 0.000128161
21 *21:21 *151:A2 0.000175519
22 *21:21 *151:B1 1.08359e-05
23 *21:21 *172:A 0
24 *21:40 *142:B1 5.31541e-05
25 *21:40 *143:D 0.000191792
26 *21:40 *150:A 2.48938e-05
27 *21:40 *151:A2 7.90803e-05
28 *21:40 *151:B1 1.17968e-05
29 *21:40 *155:A 5.33005e-05
30 *21:40 *155:B 6.34436e-05
31 *21:40 *156:B 5.52238e-05
32 *21:40 *170:A 5.33334e-05
33 *21:40 *26:14 4.43698e-05
34 *21:40 *41:8 0.000180764
35 *21:40 *43:34 5.54183e-05
36 *21:40 *43:49 0.000417891
37 *21:59 *142:A2 0
38 *21:59 *142:B1 0.000291998
39 *21:59 *147:A 2.84109e-05
40 *21:59 *166:A 0.000144712
41 *21:59 *43:49 0.000356424
42 out[5] *21:40 4.8936e-05
43 out[6] *21:10 0
44 *144:A_N *147:B 0.000266479
45 *162:A *146:B 3.63587e-05
*RES
1 *143:X *21:10 15.7821 
2 *21:10 *151:A3 14.3357 
3 *21:10 *21:21 2.85714 
4 *21:21 *150:D 14.7464 
5 *21:21 *21:40 22.9107 
6 *21:40 *146:B 24.2107 
7 *21:40 *21:59 12.5714 
8 *21:59 *144:B 9.3 
9 *21:59 *147:B 14.2643 
*END

*D_NET *22 0.000228953
*CONN
*I *145:A I *D sky130_fd_sc_hd__clkbuf_1
*I *144:X O *D sky130_fd_sc_hd__and2b_1
*CAP
1 *145:A 5.64549e-05
2 *144:X 5.64549e-05
3 *145:A *142:A2 5.80217e-05
4 *145:A *142:B1 5.80217e-05
*RES
1 *144:X *145:A 29.5464 
*END

*D_NET *23 0.00685279
*CONN
*I *148:A I *D sky130_fd_sc_hd__nor2_1
*I *149:B I *D sky130_fd_sc_hd__xnor2_1
*I *146:Y O *D sky130_fd_sc_hd__nor2_1
*CAP
1 *148:A 0.00122423
2 *149:B 0.000299098
3 *146:Y 0
4 *23:4 0.00152333
5 *148:A *147:A 0.00113138
6 *148:A *148:B 5.71472e-05
7 *148:A *168:A 9.90431e-05
8 *148:A *31:12 0.000477376
9 *149:B *149:A 0.000226021
10 *149:B *154:B 3.90513e-05
11 *149:B *38:10 0.00061149
12 *149:B *39:8 4.80729e-05
13 *149:B *39:16 0.000732816
14 *144:A_N *148:A 2.28598e-05
15 *146:B *148:A 0.000310524
16 *147:B *148:A 1.39726e-05
17 *162:A *148:A 8.43535e-06
18 *162:A *149:B 2.79421e-05
*RES
1 *146:Y *23:4 9.3 
2 *23:4 *149:B 29.9964 
3 *23:4 *148:A 42.0143 
*END

*D_NET *24 9.34293e-05
*CONN
*I *148:B I *D sky130_fd_sc_hd__nor2_1
*I *147:X O *D sky130_fd_sc_hd__and2_1
*CAP
1 *148:B 1.8141e-05
2 *147:X 1.8141e-05
3 *148:A *148:B 5.71472e-05
*RES
1 *147:X *148:B 19.1357 
*END

*D_NET *25 0.00724258
*CONN
*I *152:A I *D sky130_fd_sc_hd__and2_1
*I *154:B I *D sky130_fd_sc_hd__xor2_1
*I *150:X O *D sky130_fd_sc_hd__or4_1
*CAP
1 *152:A 0.000218086
2 *154:B 0.000271358
3 *150:X 0.00101877
4 *25:8 0.00150821
5 *152:A *29:14 0.00089807
6 *152:A *39:8 0.000371526
7 *152:A *39:16 0.000528259
8 *154:B *29:14 0.000652608
9 *154:B *39:16 0.000223603
10 *25:8 *38:25 0.00151304
11 *149:B *154:B 3.90513e-05
*RES
1 *150:X *25:8 28.3 
2 *25:8 *154:B 21.4964 
3 *25:8 *152:A 25.1571 
*END

*D_NET *26 0.00487293
*CONN
*I *152:B I *D sky130_fd_sc_hd__and2_1
*I *151:Y O *D sky130_fd_sc_hd__o31ai_1
*CAP
1 *152:B 0
2 *151:Y 0.000886944
3 *26:14 0.000886944
4 *26:14 *140:A 0.000132191
5 *26:14 *142:A1 9.16074e-05
6 *26:14 *143:C 0
7 *26:14 *151:B1 0.000153047
8 *26:14 *153:A 0.000379129
9 *26:14 *170:A 0.000760839
10 *26:14 *171:A 0
11 *26:14 *173:A 0.00011927
12 *26:14 *43:49 0.00014285
13 *141:B *26:14 5.66157e-05
14 *156:A *26:14 0.000920528
15 *19:8 *26:14 0.000298598
16 *21:40 *26:14 4.43698e-05
*RES
1 *151:Y *26:14 46.1929 
2 *26:14 *152:B 9.3 
*END

*D_NET *27 0.00244992
*CONN
*I *153:A I *D sky130_fd_sc_hd__clkbuf_1
*I *152:X O *D sky130_fd_sc_hd__and2_1
*CAP
1 *153:A 0.00102403
2 *152:X 0.00102403
3 *153:A *41:8 2.27416e-05
4 *153:A *43:49 0
5 *26:14 *153:A 0.000379129
*RES
1 *152:X *153:A 43.7607 
*END

*D_NET *28 0.000428746
*CONN
*I *156:B I *D sky130_fd_sc_hd__nor2_1
*I *155:X O *D sky130_fd_sc_hd__and2_1
*CAP
1 *156:B 0.000126329
2 *155:X 0.000126329
3 *156:B *143:C 4.62539e-05
4 *156:B *41:23 2.8266e-06
5 *156:A *156:B 7.17836e-05
6 *21:40 *156:B 5.52238e-05
*RES
1 *155:X *156:B 30.0821 
*END

*D_NET *29 0.00579197
*CONN
*I *154:A I *D sky130_fd_sc_hd__xor2_1
*I *158:X O *D sky130_fd_sc_hd__buf_1
*CAP
1 *154:A 0
2 *158:X 0.000899944
3 *29:14 0.000899944
4 *29:14 *31:12 0
5 *29:14 *37:10 0.00185985
6 *29:14 *38:10 0
7 *29:14 *39:8 7.80929e-05
8 *29:14 *39:16 0.00044631
9 *152:A *29:14 0.00089807
10 *154:B *29:14 0.000652608
11 *159:A *29:14 5.71472e-05
*RES
1 *158:X *29:14 49.4071 
2 *29:14 *154:A 9.3 
*END

*D_NET *30 0.00595021
*CONN
*I *166:A I *D sky130_fd_sc_hd__buf_2
*I *153:X O *D sky130_fd_sc_hd__clkbuf_1
*CAP
1 *166:A 0.00167349
2 *153:X 0.00167349
3 *166:A *142:B1 0.000228828
4 *166:A *173:A 0.00195704
5 *166:A *42:23 0.000212705
6 *166:A *43:34 2.11419e-05
7 out[2] *166:A 3.87979e-05
8 *21:59 *166:A 0.000144712
*RES
1 *153:X *166:A 48.8532 
*END

*D_NET *31 0.004648
*CONN
*I *167:A I *D sky130_fd_sc_hd__buf_2
*I *149:Y O *D sky130_fd_sc_hd__xnor2_1
*CAP
1 *167:A 0.000508591
2 *149:Y 0.00124786
3 *31:12 0.00175645
4 *167:A *142:A2 0.000188616
5 *167:A *142:A3 9.90431e-05
6 *167:A *142:B1 0.000183304
7 *31:12 *39:16 0.000186765
8 *148:A *31:12 0.000477376
9 *29:14 *31:12 0
*RES
1 *149:Y *31:12 41.1393 
2 *31:12 *167:A 19.2821 
*END

*D_NET *32 0.000498728
*CONN
*I *168:A I *D sky130_fd_sc_hd__buf_2
*I *148:Y O *D sky130_fd_sc_hd__nor2_1
*CAP
1 *168:A 0.000121428
2 *148:Y 0.000121428
3 *168:A *169:A 0.000129868
4 out[3] *168:A 2.69614e-05
5 *148:A *168:A 9.90431e-05
*RES
1 *148:Y *168:A 30.1893 
*END

*D_NET *33 0.00241259
*CONN
*I *169:A I *D sky130_fd_sc_hd__buf_2
*I *145:X O *D sky130_fd_sc_hd__clkbuf_1
*CAP
1 *169:A 0.000788262
2 *145:X 0.000788262
3 *169:A *170:A 0.0007062
4 *168:A *169:A 0.000129868
*RES
1 *145:X *169:A 41.7071 
*END

*D_NET *34 0.00359414
*CONN
*I *170:A I *D sky130_fd_sc_hd__buf_2
*I *141:Y O *D sky130_fd_sc_hd__xnor2_1
*CAP
1 *170:A 0.000718352
2 *141:Y 0.000718352
3 *170:A *173:A 0.000111676
4 out[4] *170:A 0
5 *141:B *170:A 0.000210575
6 *144:A_N *170:A 0.000314813
7 *169:A *170:A 0.0007062
8 *21:40 *170:A 5.33334e-05
9 *26:14 *170:A 0.000760839
*RES
1 *141:Y *170:A 48.0286 
*END

*D_NET *35 0.000452548
*CONN
*I *171:A I *D sky130_fd_sc_hd__buf_2
*I *156:Y O *D sky130_fd_sc_hd__nor2_1
*CAP
1 *171:A 0.000145049
2 *156:Y 0.000145049
3 *171:A *151:B1 0
4 *171:A *172:A 0.000125724
5 *171:A *37:12 3.67257e-05
6 *26:14 *171:A 0
*RES
1 *156:Y *171:A 30.1893 
*END

*D_NET *36 0.00121024
*CONN
*I *172:A I *D sky130_fd_sc_hd__clkbuf_4
*I *157:X O *D sky130_fd_sc_hd__clkbuf_1
*CAP
1 *172:A 0.000325138
2 *157:X 0.000325138
3 *172:A *143:C 0.000287693
4 *172:A *37:12 7.30916e-05
5 *172:A *42:10 2.49484e-05
6 out[6] *172:A 4.85029e-05
7 *171:A *172:A 0.000125724
8 *21:21 *172:A 0
*RES
1 *157:X *172:A 34.1536 
*END

*D_NET *37 0.00710401
*CONN
*I *150:C I *D sky130_fd_sc_hd__or4_1
*I *151:B1 I *D sky130_fd_sc_hd__o31ai_1
*I *159:X O *D sky130_fd_sc_hd__buf_1
*CAP
1 *150:C 4.06627e-05
2 *151:B1 9.06987e-05
3 *159:X 0.000943482
4 *37:12 0.000644035
5 *37:10 0.00145616
6 *150:C *151:A2 4.18895e-05
7 *150:C *38:25 5.52302e-05
8 *151:B1 *150:A 0.000153054
9 *151:B1 *39:16 5.52238e-05
10 *37:12 *38:25 0.00147218
11 *150:D *150:C 6.05161e-06
12 *171:A *151:B1 0
13 *171:A *37:12 3.67257e-05
14 *172:A *37:12 7.30916e-05
15 *21:21 *151:B1 1.08359e-05
16 *21:40 *151:B1 1.17968e-05
17 *26:14 *151:B1 0.000153047
18 *29:14 *37:10 0.00185985
*RES
1 *159:X *37:10 41.8 
2 *37:10 *37:12 14.0893 
3 *37:12 *151:B1 21.3893 
4 *37:12 *150:C 10.2464 
*END

*D_NET *38 0.00791207
*CONN
*I *151:A2 I *D sky130_fd_sc_hd__o31ai_1
*I *150:B I *D sky130_fd_sc_hd__or4_1
*I *149:A I *D sky130_fd_sc_hd__xnor2_1
*I *160:X O *D sky130_fd_sc_hd__buf_1
*CAP
1 *151:A2 0.00021909
2 *150:B 2.23854e-05
3 *149:A 0.000167965
4 *160:X 0.000873694
5 *38:25 0.000668712
6 *38:10 0.00146889
7 *149:A *39:16 1.33343e-05
8 *151:A2 *151:A1 1.59935e-05
9 *38:10 *39:8 0.000248382
10 out[5] *151:A2 2.09826e-05
11 *149:B *149:A 0.000226021
12 *149:B *38:10 0.00061149
13 *150:C *151:A2 4.18895e-05
14 *150:C *38:25 5.52302e-05
15 *150:D *151:A2 1.21258e-05
16 *160:A *38:10 6.05161e-06
17 *161:A *38:10 0
18 *162:A *38:10 0
19 *163:A *38:10 0
20 *21:21 *151:A2 0.000175519
21 *21:40 *151:A2 7.90803e-05
22 *25:8 *38:25 0.00151304
23 *29:14 *38:10 0
24 *37:12 *38:25 0.00147218
*RES
1 *160:X *38:10 33.0857 
2 *38:10 *149:A 17.6036 
3 *38:10 *38:25 21.0536 
4 *38:25 *150:B 9.72857 
5 *38:25 *151:A2 22.7375 
*END

*D_NET *39 0.00883997
*CONN
*I *147:A I *D sky130_fd_sc_hd__and2_1
*I *146:A I *D sky130_fd_sc_hd__nor2_1
*I *151:A1 I *D sky130_fd_sc_hd__o31ai_1
*I *150:A I *D sky130_fd_sc_hd__or4_1
*I *161:X O *D sky130_fd_sc_hd__buf_1
*CAP
1 *147:A 0.00062901
2 *146:A 0
3 *151:A1 0.000114059
4 *150:A 3.99144e-05
5 *161:X 0
6 *39:16 0.0012852
7 *39:8 0.00128069
8 *39:4 0.000778472
9 *144:A_N *147:A 0.000225616
10 *147:B *147:A 5.87086e-05
11 *148:A *147:A 0.00113138
12 *149:A *39:16 1.33343e-05
13 *149:B *39:8 4.80729e-05
14 *149:B *39:16 0.000732816
15 *151:A2 *151:A1 1.59935e-05
16 *151:A3 *151:A1 9.99644e-06
17 *151:A3 *39:16 4.0342e-06
18 *151:B1 *150:A 0.000153054
19 *151:B1 *39:16 5.52238e-05
20 *152:A *39:8 0.000371526
21 *152:A *39:16 0.000528259
22 *154:B *39:16 0.000223603
23 *21:21 *150:A 0.000128161
24 *21:40 *150:A 2.48938e-05
25 *21:59 *147:A 2.84109e-05
26 *29:14 *39:8 7.80929e-05
27 *29:14 *39:16 0.00044631
28 *31:12 *39:16 0.000186765
29 *38:10 *39:8 0.000248382
*RES
1 *161:X *39:4 9.3 
2 *39:4 *39:8 11 
3 *39:8 *39:16 29.8929 
4 *39:16 *150:A 20.2464 
5 *39:16 *151:A1 11.0857 
6 *39:8 *146:A 13.8 
7 *39:4 *147:A 24.5321 
*END

*D_NET *40 0.00759411
*CONN
*I *142:B1 I *D sky130_fd_sc_hd__o31a_1
*I *143:D I *D sky130_fd_sc_hd__or4_2
*I *162:X O *D sky130_fd_sc_hd__buf_1
*CAP
1 *142:B1 0.000689499
2 *143:D 0.000537789
3 *162:X 0.000751009
4 *40:8 0.0019783
5 *142:B1 *142:A1 0.000224596
6 *142:B1 *142:A2 0
7 *142:B1 *142:A3 6.42778e-05
8 *142:B1 *41:23 0.000260282
9 *142:B1 *42:23 0.000490151
10 *143:D *143:A 0.000117291
11 *143:D *143:B 4.13595e-05
12 *143:D *143:C 0.000280749
13 *143:D *42:6 1.92789e-05
14 *143:D *42:10 0.000539514
15 *143:D *42:23 0.000333516
16 *143:D *43:10 0
17 *143:D *43:21 0
18 *143:D *43:34 1.03107e-05
19 *145:A *142:B1 5.80217e-05
20 *146:B *40:8 0.000249091
21 *166:A *142:B1 0.000228828
22 *167:A *142:B1 0.000183304
23 *21:40 *142:B1 5.31541e-05
24 *21:40 *143:D 0.000191792
25 *21:59 *142:B1 0.000291998
*RES
1 *162:X *40:8 23.3714 
2 *40:8 *143:D 28.9964 
3 *40:8 *142:B1 32.2643 
*END

*D_NET *41 0.00868127
*CONN
*I *141:A I *D sky130_fd_sc_hd__xnor2_1
*I *142:A3 I *D sky130_fd_sc_hd__o31a_1
*I *143:C I *D sky130_fd_sc_hd__or4_2
*I *163:X O *D sky130_fd_sc_hd__buf_1
*CAP
1 *141:A 0.000220405
2 *142:A3 8.93643e-05
3 *143:C 0.000276687
4 *163:X 0.00108604
5 *41:23 0.000981264
6 *41:8 0.00203423
7 *141:A *142:A2 0
8 *142:A3 *142:A1 0.000224596
9 *142:A3 *142:A2 0.000399848
10 *143:C *143:A 1.32552e-05
11 *143:C *143:B 0.000268403
12 *143:C *42:10 0.00047399
13 *41:8 *155:B 1.39841e-05
14 *41:23 *142:A1 0.000182451
15 *41:23 *142:A2 0
16 *41:23 *173:A 0.000300662
17 *41:23 *42:10 4.49293e-05
18 *41:23 *42:23 0.000826532
19 *141:B *141:A 0
20 *141:B *41:23 0
21 *142:B1 *142:A3 6.42778e-05
22 *142:B1 *41:23 0.000260282
23 *143:D *143:C 0.000280749
24 *153:A *41:8 2.27416e-05
25 *156:A *41:23 0
26 *156:B *143:C 4.62539e-05
27 *156:B *41:23 2.8266e-06
28 *167:A *142:A3 9.90431e-05
29 *172:A *143:C 0.000287693
30 *21:40 *41:8 0.000180764
31 *26:14 *143:C 0
*RES
1 *163:X *41:8 26.2464 
2 *41:8 *143:C 23.425 
3 *41:8 *41:23 18.0357 
4 *41:23 *142:A3 18.0321 
5 *41:23 *141:A 17.3 
*END

*D_NET *42 0.00888172
*CONN
*I *143:A I *D sky130_fd_sc_hd__or4_2
*I *142:A1 I *D sky130_fd_sc_hd__o31a_1
*I *140:A I *D sky130_fd_sc_hd__nor2_1
*I *155:A I *D sky130_fd_sc_hd__and2_1
*I *164:X O *D sky130_fd_sc_hd__buf_1
*CAP
1 *143:A 0.000356718
2 *142:A1 0.000381098
3 *140:A 0.000232878
4 *155:A 1.69531e-05
5 *164:X 0.000587873
6 *42:23 0.000818962
7 *42:10 0.000460233
8 *42:6 0.00118289
9 *140:A *43:49 0.000140933
10 *142:A1 *173:A 0.000102969
11 *155:A *155:B 5.33005e-05
12 *42:6 *143:B 1.92116e-05
13 *42:6 *43:10 0.000238959
14 out[2] *142:A1 2.22043e-05
15 out[6] *42:10 0
16 *141:B *142:A1 0.000260107
17 *142:A3 *142:A1 0.000224596
18 *142:B1 *142:A1 0.000224596
19 *142:B1 *42:23 0.000490151
20 *143:C *143:A 1.32552e-05
21 *143:C *42:10 0.00047399
22 *143:D *143:A 0.000117291
23 *143:D *42:6 1.92789e-05
24 *143:D *42:10 0.000539514
25 *143:D *42:23 0.000333516
26 *166:A *42:23 0.000212705
27 *172:A *42:10 2.49484e-05
28 *21:10 *143:A 1.58213e-06
29 *21:40 *155:A 5.33005e-05
30 *26:14 *140:A 0.000132191
31 *26:14 *142:A1 9.16074e-05
32 *41:23 *142:A1 0.000182451
33 *41:23 *42:10 4.49293e-05
34 *41:23 *42:23 0.000826532
*RES
1 *164:X *42:6 17.2286 
2 *42:6 *42:10 12.5179 
3 *42:10 *155:A 14.3357 
4 *42:10 *42:23 14.9464 
5 *42:23 *140:A 13.55 
6 *42:23 *142:A1 29.05 
7 *42:6 *143:A 14.2643 
*END

*D_NET *43 0.00789602
*CONN
*I *140:B I *D sky130_fd_sc_hd__nor2_1
*I *142:A2 I *D sky130_fd_sc_hd__o31a_1
*I *155:B I *D sky130_fd_sc_hd__and2_1
*I *157:A I *D sky130_fd_sc_hd__clkbuf_1
*I *143:B I *D sky130_fd_sc_hd__or4_2
*I *165:X O *D sky130_fd_sc_hd__dlymetal6s2s_1
*CAP
1 *140:B 0
2 *142:A2 0.000775329
3 *155:B 0.000124739
4 *157:A 0
5 *143:B 0.000388532
6 *165:X 0.000461577
7 *43:49 0.00117601
8 *43:34 0.000746835
9 *43:21 0.000465035
10 *43:10 0.00109373
11 *43:21 *173:A 0
12 *140:A *43:49 0.000140933
13 *141:A *142:A2 0
14 *142:A3 *142:A2 0.000399848
15 *142:B1 *142:A2 0
16 *143:C *143:B 0.000268403
17 *143:D *143:B 4.13595e-05
18 *143:D *43:10 0
19 *143:D *43:21 0
20 *143:D *43:34 1.03107e-05
21 *145:A *142:A2 5.80217e-05
22 *153:A *43:49 0
23 *155:A *155:B 5.33005e-05
24 *164:A *43:10 0.00017412
25 *166:A *43:34 2.11419e-05
26 *167:A *142:A2 0.000188616
27 *21:40 *155:B 6.34436e-05
28 *21:40 *43:34 5.54183e-05
29 *21:40 *43:49 0.000417891
30 *21:59 *142:A2 0
31 *21:59 *43:49 0.000356424
32 *26:14 *43:49 0.00014285
33 *41:8 *155:B 1.39841e-05
34 *41:23 *142:A2 0
35 *42:6 *143:B 1.92116e-05
36 *42:6 *43:10 0.000238959
*RES
1 *165:X *43:10 24.1036 
2 *43:10 *143:B 18.8536 
3 *43:10 *43:21 4.07143 
4 *43:21 *157:A 13.8 
5 *43:21 *43:34 3.51786 
6 *43:34 *155:B 15.9786 
7 *43:34 *43:49 15.6964 
8 *43:49 *142:A2 33.1214 
9 *43:49 *140:B 9.3 
*END

*D_NET *44 0.00685171
*CONN
*I *173:A I *D sky130_fd_sc_hd__buf_2
*I *154:X O *D sky130_fd_sc_hd__xor2_1
*CAP
1 *173:A 0.00205712
2 *154:X 0.00205712
3 *142:A1 *173:A 0.000102969
4 *156:A *173:A 0.000145849
5 *166:A *173:A 0.00195704
6 *170:A *173:A 0.000111676
7 *26:14 *173:A 0.00011927
8 *41:23 *173:A 0.000300662
9 *43:21 *173:A 0
*RES
1 *154:X *173:A 49.6902 
*END
