*SPEF "ieee 1481-1999"
*DESIGN "main"
*DATE "17:59:31 Saturday April 26, 2025"
*VENDOR "The OpenROAD Project"
*PROGRAM "OpenROAD"
*VERSION "b16bda7e82721d10566ff7e2b68f1ff0be9f9e38"
*DESIGN_FLOW "NAME_SCOPE LOCAL" "PIN_CAP NONE"
*DIVIDER /
*DELIMITER :
*BUS_DELIMITER []
*T_UNIT 1 NS
*C_UNIT 1 PF
*R_UNIT 1 OHM
*L_UNIT 1 HENRY

*NAME_MAP
*3 in[0]
*4 in[1]
*5 in[2]
*6 in[3]
*7 in[4]
*8 in[5]
*9 in[6]
*10 in[7]
*11 out[0]
*12 out[1]
*13 out[2]
*14 out[3]
*15 out[4]
*16 out[5]
*17 out[6]
*18 out[7]
*19 _00_
*20 _01_
*21 _02_
*22 _03_
*23 _04_
*24 _05_
*25 _06_
*26 _07_
*27 _08_
*28 _09_
*29 net1
*30 net10
*31 net11
*32 net12
*33 net13
*34 net14
*35 net15
*36 net16
*37 net2
*38 net3
*39 net4
*40 net5
*41 net6
*42 net7
*43 net8
*44 net9
*45 FILLER_0_0_16
*46 FILLER_0_0_29
*47 FILLER_0_10_18
*48 FILLER_0_10_26
*49 FILLER_0_10_29
*50 FILLER_0_10_6
*51 FILLER_0_11_15
*52 FILLER_0_11_27
*53 FILLER_0_11_3
*54 FILLER_0_11_42
*55 FILLER_0_12_21
*56 FILLER_0_12_27
*57 FILLER_0_12_29
*58 FILLER_0_12_37
*59 FILLER_0_12_9
*60 FILLER_0_1_10
*61 FILLER_0_1_14
*62 FILLER_0_1_22
*63 FILLER_0_1_34
*64 FILLER_0_1_47
*65 FILLER_0_2_15
*66 FILLER_0_2_27
*67 FILLER_0_2_3
*68 FILLER_0_2_32
*69 FILLER_0_2_47
*70 FILLER_0_3_18
*71 FILLER_0_3_26
*72 FILLER_0_3_30
*73 FILLER_0_3_38
*74 FILLER_0_3_6
*75 FILLER_0_4_15
*76 FILLER_0_4_27
*77 FILLER_0_4_29
*78 FILLER_0_4_3
*79 FILLER_0_4_41
*80 FILLER_0_4_47
*81 FILLER_0_5_11
*82 FILLER_0_5_23
*83 FILLER_0_5_3
*84 FILLER_0_5_35
*85 FILLER_0_5_43
*86 FILLER_0_6_15
*87 FILLER_0_6_27
*88 FILLER_0_6_29
*89 FILLER_0_6_3
*90 FILLER_0_6_41
*91 FILLER_0_6_47
*92 FILLER_0_7_11
*93 FILLER_0_7_23
*94 FILLER_0_7_28
*95 FILLER_0_7_3
*96 FILLER_0_7_40
*97 FILLER_0_8_18
*98 FILLER_0_8_26
*99 FILLER_0_8_29
*100 FILLER_0_8_36
*101 FILLER_0_8_6
*102 FILLER_0_9_15
*103 FILLER_0_9_27
*104 FILLER_0_9_3
*105 FILLER_0_9_33
*106 FILLER_0_9_45
*107 PHY_EDGE_ROW_0_Left_13
*108 PHY_EDGE_ROW_0_Right_0
*109 PHY_EDGE_ROW_10_Left_23
*110 PHY_EDGE_ROW_10_Right_10
*111 PHY_EDGE_ROW_11_Left_24
*112 PHY_EDGE_ROW_11_Right_11
*113 PHY_EDGE_ROW_12_Left_25
*114 PHY_EDGE_ROW_12_Right_12
*115 PHY_EDGE_ROW_1_Left_14
*116 PHY_EDGE_ROW_1_Right_1
*117 PHY_EDGE_ROW_2_Left_15
*118 PHY_EDGE_ROW_2_Right_2
*119 PHY_EDGE_ROW_3_Left_16
*120 PHY_EDGE_ROW_3_Right_3
*121 PHY_EDGE_ROW_4_Left_17
*122 PHY_EDGE_ROW_4_Right_4
*123 PHY_EDGE_ROW_5_Left_18
*124 PHY_EDGE_ROW_5_Right_5
*125 PHY_EDGE_ROW_6_Left_19
*126 PHY_EDGE_ROW_6_Right_6
*127 PHY_EDGE_ROW_7_Left_20
*128 PHY_EDGE_ROW_7_Right_7
*129 PHY_EDGE_ROW_8_Left_21
*130 PHY_EDGE_ROW_8_Right_8
*131 PHY_EDGE_ROW_9_Left_22
*132 PHY_EDGE_ROW_9_Right_9
*133 TAP_TAPCELL_ROW_0_26
*134 TAP_TAPCELL_ROW_10_31
*135 TAP_TAPCELL_ROW_12_32
*136 TAP_TAPCELL_ROW_2_27
*137 TAP_TAPCELL_ROW_4_28
*138 TAP_TAPCELL_ROW_6_29
*139 TAP_TAPCELL_ROW_8_30
*140 _10_
*141 _11_
*142 _12_
*143 _13_
*144 _14_
*145 _15_
*146 _16_
*147 _17_
*148 _18_
*149 _19_
*150 _20_
*151 _21_
*152 _22_
*153 _23_
*154 _24_
*155 _25_
*156 _26_
*157 _27_
*158 input1
*159 input2
*160 input3
*161 input4
*162 input5
*163 input6
*164 input7
*165 input8
*166 output10
*167 output11
*168 output12
*169 output13
*170 output14
*171 output15
*172 output16
*173 output9

*PORTS
in[0] I
in[1] I
in[2] I
in[3] I
in[4] I
in[5] I
in[6] I
in[7] I
out[0] O
out[1] O
out[2] O
out[3] O
out[4] O
out[5] O
out[6] O
out[7] O

*D_NET *3 0.00101438
*CONN
*P in[0] I
*I *158:A I *D sky130_fd_sc_hd__buf_1
*CAP
1 in[0] 0.000507191
2 *158:A 0.000507191
3 *158:A *159:A 0
*RES
1 in[0] *158:A 10.2018 
*END

*D_NET *4 0.000760629
*CONN
*P in[1] I
*I *159:A I *D sky130_fd_sc_hd__buf_1
*CAP
1 in[1] 0.000355334
2 *159:A 0.000355334
3 *159:A *154:A 4.99619e-05
4 *159:A *160:A 0
5 *158:A *159:A 0
*RES
1 in[1] *159:A 8.2293 
*END

*D_NET *5 0.000536176
*CONN
*P in[2] I
*I *160:A I *D sky130_fd_sc_hd__buf_1
*CAP
1 in[2] 0.000265172
2 *160:A 0.000265172
3 *160:A *161:A 0
4 *160:A *38:10 5.83121e-06
5 *159:A *160:A 0
*RES
1 in[2] *160:A 6.8343 
*END

*D_NET *6 0.000646144
*CONN
*P in[3] I
*I *161:A I *D sky130_fd_sc_hd__buf_1
*CAP
1 in[3] 0.000323072
2 *161:A 0.000323072
3 *161:A *162:A 0
4 *161:A *38:10 0
5 *160:A *161:A 0
*RES
1 in[3] *161:A 7.8543 
*END

*D_NET *7 0.000863877
*CONN
*P in[4] I
*I *162:A I *D sky130_fd_sc_hd__buf_1
*CAP
1 in[4] 0.000396687
2 *162:A 0.000396687
3 *162:A *146:B 3.45252e-05
4 *162:A *148:A 8.34281e-06
5 *162:A *149:B 2.76356e-05
6 *162:A *163:A 0
7 *162:A *38:10 0
8 *161:A *162:A 0
*RES
1 in[4] *162:A 8.98043 
*END

*D_NET *8 0.000674236
*CONN
*P in[5] I
*I *163:A I *D sky130_fd_sc_hd__buf_1
*CAP
1 in[5] 0.000337118
2 *163:A 0.000337118
3 *163:A *164:A 0
4 *163:A *38:10 0
5 *162:A *163:A 0
*RES
1 in[5] *163:A 8.1093 
*END

*D_NET *9 0.00109894
*CONN
*P in[6] I
*I *164:A I *D sky130_fd_sc_hd__buf_1
*CAP
1 in[6] 0.000458037
2 *164:A 0.000458037
3 *164:A *165:A 2.04591e-05
4 *164:A *43:10 0.000162404
5 *163:A *164:A 0
*RES
1 in[6] *164:A 9.59023 
*END

*D_NET *10 0.00104591
*CONN
*P in[7] I
*I *165:A I *D sky130_fd_sc_hd__dlymetal6s2s_1
*CAP
1 in[7] 0.000512726
2 *165:A 0.000512726
3 *164:A *165:A 2.04591e-05
*RES
1 in[7] *165:A 10.4568 
*END

*D_NET *11 0.00109227
*CONN
*P out[0] O
*I *173:X O *D sky130_fd_sc_hd__buf_2
*CAP
1 out[0] 0.000546133
2 *173:X 0.000546133
3 out[0] out[1] 0
*RES
1 *173:X out[0] 9.66983 
*END

*D_NET *12 0.000406585
*CONN
*P out[1] O
*I *166:X O *D sky130_fd_sc_hd__buf_2
*CAP
1 out[1] 0.000203292
2 *166:X 0.000203292
3 out[1] out[2] 0
4 out[0] out[1] 0
*RES
1 *166:X out[1] 4.84677 
*END

*D_NET *13 0.000959102
*CONN
*P out[2] O
*I *167:X O *D sky130_fd_sc_hd__buf_2
*CAP
1 out[2] 0.000440108
2 *167:X 0.000440108
3 out[2] out[3] 0
4 out[2] *141:B 1.88656e-05
5 out[2] *142:A1 2.05641e-05
6 out[2] *166:A 3.94567e-05
7 out[1] out[2] 0
*RES
1 *167:X out[2] 5.25463 
*END

*D_NET *14 0.0004613
*CONN
*P out[3] O
*I *168:X O *D sky130_fd_sc_hd__buf_2
*CAP
1 out[3] 0.000217807
2 *168:X 0.000217807
3 out[3] out[4] 0
4 out[3] *168:A 2.56866e-05
5 out[2] out[3] 0
*RES
1 *168:X out[3] 5.10177 
*END

*D_NET *15 0.000410041
*CONN
*P out[4] O
*I *169:X O *D sky130_fd_sc_hd__buf_2
*CAP
1 out[4] 0.00020502
2 *169:X 0.00020502
3 out[4] out[5] 0
4 out[4] *170:A 0
5 out[3] out[4] 0
*RES
1 *169:X out[4] 4.84677 
*END

*D_NET *16 0.00056591
*CONN
*P out[5] O
*I *170:X O *D sky130_fd_sc_hd__buf_2
*CAP
1 out[5] 0.000249434
2 *170:X 0.000249434
3 out[5] out[6] 0
4 out[5] *151:A2 1.93765e-05
5 out[5] *21:40 4.76659e-05
6 out[4] out[5] 0
*RES
1 *170:X out[5] 5.86677 
*END

*D_NET *17 0.00122848
*CONN
*P out[6] O
*I *171:X O *D sky130_fd_sc_hd__buf_2
*CAP
1 out[6] 0.000569216
2 *171:X 0.000569216
3 out[6] out[7] 3.96263e-05
4 out[6] *172:A 5.04256e-05
5 out[6] *21:10 0
6 out[6] *42:10 0
7 out[5] out[6] 0
*RES
1 *171:X out[6] 7.29463 
*END

*D_NET *18 0.00128761
*CONN
*P out[7] O
*I *172:X O *D sky130_fd_sc_hd__clkbuf_4
*CAP
1 out[7] 0.000623993
2 *172:X 0.000623993
3 out[6] out[7] 3.96263e-05
*RES
1 *172:X out[7] 10.5514 
*END

*D_NET *19 0.00441512
*CONN
*I *141:B I *D sky130_fd_sc_hd__xnor2_1
*I *156:A I *D sky130_fd_sc_hd__nor2_1
*I *140:Y O *D sky130_fd_sc_hd__nor2_1
*CAP
1 *141:B 0.000382502
2 *156:A 0.000379527
3 *140:Y 0.000360717
4 *19:8 0.00112275
5 *141:B *141:A 0
6 *141:B *142:A1 0.000253827
7 *141:B *144:A_N 0.000290941
8 *141:B *152:B 5.23362e-05
9 *141:B *170:A 0.000205864
10 *141:B *41:23 0
11 *156:A *152:B 0.000851843
12 *156:A *156:B 7.09921e-05
13 *156:A *173:A 0.000141445
14 *156:A *41:23 0
15 *19:8 *152:B 0.000283509
16 out[2] *141:B 1.88656e-05
*RES
1 *140:Y *19:8 8.19 
2 *19:8 *156:A 13.395 
3 *19:8 *141:B 13.17 
*END

*D_NET *20 0.00128954
*CONN
*I *144:A_N I *D sky130_fd_sc_hd__and2b_1
*I *142:X O *D sky130_fd_sc_hd__o31a_1
*CAP
1 *144:A_N 0.000127847
2 *142:X 0.000127847
3 *144:A_N *147:A 0.000197269
4 *144:A_N *147:B 0.000233004
5 *144:A_N *148:A 2.16917e-05
6 *144:A_N *170:A 0.000290941
7 *141:B *144:A_N 0.000290941
*RES
1 *142:X *144:A_N 12.795 
*END

*D_NET *21 0.00664695
*CONN
*I *147:B I *D sky130_fd_sc_hd__and2_1
*I *144:B I *D sky130_fd_sc_hd__and2b_1
*I *146:B I *D sky130_fd_sc_hd__nor2_1
*I *150:D I *D sky130_fd_sc_hd__or4_1
*I *151:A3 I *D sky130_fd_sc_hd__o31ai_1
*I *143:X O *D sky130_fd_sc_hd__or4_2
*CAP
1 *147:B 0.000245891
2 *144:B 0
3 *146:B 0.00045248
4 *150:D 6.00844e-05
5 *151:A3 3.81602e-05
6 *143:X 0.000134562
7 *21:59 0.000495498
8 *21:40 0.00116754
9 *21:21 0.000600656
10 *21:10 0.000247838
11 *146:B *148:A 0.00026982
12 *146:B *40:8 0.000253956
13 *147:B *147:A 5.54909e-05
14 *147:B *148:A 1.34503e-05
15 *150:D *150:C 5.83121e-06
16 *150:D *151:A2 1.19928e-05
17 *151:A3 *151:A1 1.03323e-05
18 *151:A3 *39:16 4.05674e-06
19 *21:10 *143:A 1.54061e-06
20 *21:21 *150:A 0.000118527
21 *21:21 *151:A2 0.000162325
22 *21:21 *151:B1 1.07797e-05
23 *21:21 *172:A 0
24 *21:40 *142:B1 5.10957e-05
25 *21:40 *143:D 0.000186227
26 *21:40 *150:A 2.30797e-05
27 *21:40 *151:A2 7.30547e-05
28 *21:40 *151:B1 1.1561e-05
29 *21:40 *152:B 4.62396e-05
30 *21:40 *155:A 4.66108e-05
31 *21:40 *155:B 6.03315e-05
32 *21:40 *156:B 4.82863e-05
33 *21:40 *170:A 5.05437e-05
34 *21:40 *41:8 0.00015806
35 *21:40 *43:34 5.07362e-05
36 *21:40 *43:49 0.00038674
37 *21:59 *142:A2 0
38 *21:59 *142:B1 0.000283522
39 *21:59 *147:A 2.68526e-05
40 *21:59 *166:A 0.000138309
41 *21:59 *43:49 0.000329688
42 out[5] *21:40 4.76659e-05
43 out[6] *21:10 0
44 *144:A_N *147:B 0.000233004
45 *162:A *146:B 3.45252e-05
*RES
1 *143:X *21:10 5.265 
2 *21:10 *151:A3 4.05 
3 *21:10 *21:21 2.4 
4 *21:21 *150:D 4.395 
5 *21:21 *21:40 15.685 
6 *21:40 *146:B 12.345 
7 *21:40 *21:59 8.78 
8 *21:59 *144:B 1.6 
9 *21:59 *147:B 5.77 
*END

*D_NET *22 0.000215123
*CONN
*I *145:A I *D sky130_fd_sc_hd__clkbuf_1
*I *144:X O *D sky130_fd_sc_hd__and2b_1
*CAP
1 *145:A 4.82764e-05
2 *144:X 4.82764e-05
3 *145:A *142:A2 5.92849e-05
4 *145:A *142:B1 5.92849e-05
*RES
1 *144:X *145:A 8.835 
*END

*D_NET *23 0.00613454
*CONN
*I *148:A I *D sky130_fd_sc_hd__nor2_1
*I *149:B I *D sky130_fd_sc_hd__xnor2_1
*I *146:Y O *D sky130_fd_sc_hd__nor2_1
*CAP
1 *148:A 0.0010947
2 *149:B 0.000255735
3 *146:Y 0
4 *23:4 0.00135044
5 *148:A *147:A 0.000986658
6 *148:A *148:B 4.99619e-05
7 *148:A *167:A 0.000433873
8 *148:A *168:A 8.65961e-05
9 *149:B *149:A 0.000209179
10 *149:B *154:B 3.76596e-05
11 *149:B *38:10 0.000565981
12 *149:B *39:8 4.44927e-05
13 *149:B *39:16 0.000678324
14 *144:A_N *148:A 2.16917e-05
15 *146:B *148:A 0.00026982
16 *147:B *148:A 1.34503e-05
17 *162:A *148:A 8.34281e-06
18 *162:A *149:B 2.76356e-05
*RES
1 *146:Y *23:4 1.6 
2 *23:4 *149:B 15.425 
3 *23:4 *148:A 25.52 
*END

*D_NET *24 8.4422e-05
*CONN
*I *148:B I *D sky130_fd_sc_hd__nor2_1
*I *147:X O *D sky130_fd_sc_hd__and2_1
*CAP
1 *148:B 1.72301e-05
2 *147:X 1.72301e-05
3 *148:A *148:B 4.99619e-05
*RES
1 *147:X *148:B 3.65 
*END

*D_NET *25 0.00643632
*CONN
*I *152:A I *D sky130_fd_sc_hd__and2_1
*I *154:B I *D sky130_fd_sc_hd__xor2_1
*I *150:X O *D sky130_fd_sc_hd__or4_1
*CAP
1 *152:A 0.000186188
2 *154:B 0.000240909
3 *150:X 0.000886542
4 *25:8 0.00131364
5 *152:A *154:A 0.000831132
6 *152:A *39:8 0.000343907
7 *152:A *39:16 0.000488892
8 *154:B *154:A 0.000580334
9 *154:B *39:16 0.000207585
10 *25:8 *38:25 0.00131953
11 *149:B *154:B 3.76596e-05
*RES
1 *150:X *25:8 15.78 
2 *25:8 *154:B 10.065 
3 *25:8 *152:A 13.14 
*END

*D_NET *26 0.00445743
*CONN
*I *152:B I *D sky130_fd_sc_hd__and2_1
*I *151:Y O *D sky130_fd_sc_hd__o31ai_1
*CAP
1 *152:B 0.000783753
2 *151:Y 0.000783753
3 *152:B *140:A 0.00012555
4 *152:B *142:A1 8.69098e-05
5 *152:B *143:C 0
6 *152:B *151:B1 0.000141599
7 *152:B *153:A 0.00035693
8 *152:B *170:A 0.000704446
9 *152:B *171:A 0
10 *152:B *173:A 0.000115669
11 *152:B *43:49 0.000124895
12 *141:B *152:B 5.23362e-05
13 *156:A *152:B 0.000851843
14 *19:8 *152:B 0.000283509
15 *21:40 *152:B 4.62396e-05
*RES
1 *151:Y *152:B 30.63 
*END

*D_NET *27 0.00220449
*CONN
*I *153:A I *D sky130_fd_sc_hd__clkbuf_1
*I *152:X O *D sky130_fd_sc_hd__and2_1
*CAP
1 *153:A 0.000913223
2 *152:X 0.000913223
3 *153:A *41:8 2.11084e-05
4 *153:A *43:49 0
5 *152:B *153:A 0.00035693
*RES
1 *152:X *153:A 20.775 
*END

*D_NET *28 0.000380929
*CONN
*I *156:B I *D sky130_fd_sc_hd__nor2_1
*I *155:X O *D sky130_fd_sc_hd__and2_1
*CAP
1 *156:B 0.000105174
2 *155:X 0.000105174
3 *156:B *143:C 4.83324e-05
4 *156:B *41:23 2.97004e-06
5 *156:A *156:B 7.09921e-05
6 *21:40 *156:B 4.82863e-05
*RES
1 *155:X *156:B 9.285 
*END

*D_NET *29 0.00523335
*CONN
*I *154:A I *D sky130_fd_sc_hd__xor2_1
*I *158:X O *D sky130_fd_sc_hd__buf_1
*CAP
1 *154:A 0.000794168
2 *158:X 0.000794168
3 *154:A *167:A 0
4 *154:A *37:12 0.0017213
5 *154:A *38:10 0
6 *154:A *39:8 7.53115e-05
7 *154:A *39:16 0.000386974
8 *152:A *154:A 0.000831132
9 *154:B *154:A 0.000580334
10 *159:A *154:A 4.99619e-05
*RES
1 *158:X *154:A 33.33 
*END

*D_NET *30 0.00552234
*CONN
*I *166:A I *D sky130_fd_sc_hd__buf_2
*I *153:X O *D sky130_fd_sc_hd__clkbuf_1
*CAP
1 *166:A 0.00156229
2 *153:X 0.00156229
3 *166:A *142:B1 0.000218788
4 *166:A *173:A 0.00177862
5 *166:A *42:23 0.000203294
6 *166:A *43:34 1.92979e-05
7 out[2] *166:A 3.94567e-05
8 *21:59 *166:A 0.000138309
*RES
1 *153:X *166:A 15.4493 
*END

*D_NET *31 0.00422431
*CONN
*I *167:A I *D sky130_fd_sc_hd__buf_2
*I *149:Y O *D sky130_fd_sc_hd__xnor2_1
*CAP
1 *167:A 0.00160261
2 *149:Y 0.00160261
3 *167:A *142:A2 0.000177291
4 *167:A *142:A3 8.65961e-05
5 *167:A *142:B1 0.000159851
6 *167:A *39:16 0.000161467
7 *148:A *167:A 0.000433873
8 *154:A *167:A 0
*RES
1 *149:Y *167:A 34.77 
*END

*D_NET *32 0.000444915
*CONN
*I *168:A I *D sky130_fd_sc_hd__buf_2
*I *148:Y O *D sky130_fd_sc_hd__nor2_1
*CAP
1 *168:A 0.000106223
2 *148:Y 0.000106223
3 *168:A *169:A 0.000120186
4 out[3] *168:A 2.56866e-05
5 *148:A *168:A 8.65961e-05
*RES
1 *148:Y *168:A 9.375 
*END

*D_NET *33 0.00216691
*CONN
*I *169:A I *D sky130_fd_sc_hd__buf_2
*I *145:X O *D sky130_fd_sc_hd__clkbuf_1
*CAP
1 *169:A 0.000696575
2 *145:X 0.000696575
3 *169:A *170:A 0.000653571
4 *168:A *169:A 0.000120186
*RES
1 *145:X *169:A 19.05 
*END

*D_NET *34 0.00327252
*CONN
*I *170:A I *D sky130_fd_sc_hd__buf_2
*I *141:Y O *D sky130_fd_sc_hd__xnor2_1
*CAP
1 *170:A 0.000629424
2 *141:Y 0.000629424
3 *170:A *173:A 0.000108304
4 out[4] *170:A 0
5 *141:B *170:A 0.000205864
6 *144:A_N *170:A 0.000290941
7 *152:B *170:A 0.000704446
8 *169:A *170:A 0.000653571
9 *21:40 *170:A 5.05437e-05
*RES
1 *141:Y *170:A 24.36 
*END

*D_NET *35 0.00040333
*CONN
*I *171:A I *D sky130_fd_sc_hd__buf_2
*I *156:Y O *D sky130_fd_sc_hd__nor2_1
*CAP
1 *171:A 0.000126302
2 *156:Y 0.000126302
3 *171:A *151:B1 0
4 *171:A *172:A 0.000116158
5 *171:A *37:12 3.45679e-05
6 *152:B *171:A 0
*RES
1 *156:Y *171:A 9.375 
*END

*D_NET *36 0.00107975
*CONN
*I *172:A I *D sky130_fd_sc_hd__clkbuf_4
*I *157:X O *D sky130_fd_sc_hd__clkbuf_1
*CAP
1 *172:A 0.000276389
2 *157:X 0.000276389
3 *172:A *143:C 0.000265624
4 *172:A *37:12 7.05371e-05
5 *172:A *42:10 2.42236e-05
6 out[6] *172:A 5.04256e-05
7 *171:A *172:A 0.000116158
8 *21:21 *172:A 0
*RES
1 *157:X *172:A 12.705 
*END

*D_NET *37 0.00641691
*CONN
*I *150:C I *D sky130_fd_sc_hd__or4_1
*I *151:B1 I *D sky130_fd_sc_hd__o31ai_1
*I *159:X O *D sky130_fd_sc_hd__buf_1
*CAP
1 *150:C 3.51817e-05
2 *151:B1 7.89966e-05
3 *159:X 0.00131689
4 *37:12 0.00143106
5 *150:C *151:A2 3.66286e-05
6 *150:C *38:25 4.82919e-05
7 *151:B1 *150:A 0.000141606
8 *151:B1 *39:16 4.82863e-05
9 *37:12 *38:25 0.00128379
10 *150:D *150:C 5.83121e-06
11 *152:B *151:B1 0.000141599
12 *154:A *37:12 0.0017213
13 *171:A *151:B1 0
14 *171:A *37:12 3.45679e-05
15 *172:A *37:12 7.05371e-05
16 *21:21 *151:B1 1.07797e-05
17 *21:40 *151:B1 1.1561e-05
*RES
1 *159:X *37:12 37.175 
2 *37:12 *151:B1 8.195 
3 *37:12 *150:C 2.395 
*END

*D_NET *38 0.00705981
*CONN
*I *151:A2 I *D sky130_fd_sc_hd__o31ai_1
*I *150:B I *D sky130_fd_sc_hd__or4_1
*I *149:A I *D sky130_fd_sc_hd__xnor2_1
*I *160:X O *D sky130_fd_sc_hd__buf_1
*CAP
1 *151:A2 0.000191789
2 *150:B 2.08101e-05
3 *149:A 0.000151982
4 *160:X 0.000790222
5 *38:25 0.000586494
6 *38:10 0.0013161
7 *149:A *39:16 1.16578e-05
8 *151:A2 *151:A1 1.54111e-05
9 *38:10 *39:8 0.00023937
10 out[5] *151:A2 1.93765e-05
11 *149:B *149:A 0.000209179
12 *149:B *38:10 0.000565981
13 *150:C *151:A2 3.66286e-05
14 *150:C *38:25 4.82919e-05
15 *150:D *151:A2 1.19928e-05
16 *154:A *38:10 0
17 *160:A *38:10 5.83121e-06
18 *161:A *38:10 0
19 *162:A *38:10 0
20 *163:A *38:10 0
21 *21:21 *151:A2 0.000162325
22 *21:40 *151:A2 7.30547e-05
23 *25:8 *38:25 0.00131953
24 *37:12 *38:25 0.00128379
*RES
1 *160:X *38:10 19.8 
2 *38:10 *149:A 6.795 
3 *38:10 *38:25 15.905 
4 *38:25 *150:B 1.96 
5 *38:25 *151:A2 9.3275 
*END

*D_NET *39 0.00799448
*CONN
*I *147:A I *D sky130_fd_sc_hd__and2_1
*I *146:A I *D sky130_fd_sc_hd__nor2_1
*I *151:A1 I *D sky130_fd_sc_hd__o31ai_1
*I *150:A I *D sky130_fd_sc_hd__or4_1
*I *161:X O *D sky130_fd_sc_hd__buf_1
*CAP
1 *147:A 0.000575554
2 *146:A 0
3 *151:A1 0.000102117
4 *150:A 3.37559e-05
5 *161:X 0
6 *39:16 0.0011611
7 *39:8 0.00115304
8 *39:4 0.000703367
9 *144:A_N *147:A 0.000197269
10 *147:B *147:A 5.54909e-05
11 *148:A *147:A 0.000986658
12 *149:A *39:16 1.16578e-05
13 *149:B *39:8 4.44927e-05
14 *149:B *39:16 0.000678324
15 *151:A2 *151:A1 1.54111e-05
16 *151:A3 *151:A1 1.03323e-05
17 *151:A3 *39:16 4.05674e-06
18 *151:B1 *150:A 0.000141606
19 *151:B1 *39:16 4.82863e-05
20 *152:A *39:8 0.000343907
21 *152:A *39:16 0.000488892
22 *154:A *39:8 7.53115e-05
23 *154:A *39:16 0.000386974
24 *154:B *39:16 0.000207585
25 *167:A *39:16 0.000161467
26 *21:21 *150:A 0.000118527
27 *21:40 *150:A 2.30797e-05
28 *21:59 *147:A 2.68526e-05
29 *38:10 *39:8 0.00023937
*RES
1 *161:X *39:4 1.6 
2 *39:4 *39:8 7.46 
3 *39:8 *39:16 23.33 
4 *39:16 *150:A 7.235 
5 *39:16 *151:A1 3.1 
6 *39:8 *146:A 3.6 
7 *39:4 *147:A 14.395 
*END

*D_NET *40 0.00685713
*CONN
*I *142:B1 I *D sky130_fd_sc_hd__o31a_1
*I *143:D I *D sky130_fd_sc_hd__or4_2
*I *162:X O *D sky130_fd_sc_hd__buf_1
*CAP
1 *142:B1 0.000605768
2 *143:D 0.000464065
3 *162:X 0.000654133
4 *40:8 0.00172397
5 *142:B1 *142:A1 0.000196381
6 *142:B1 *142:A2 0
7 *142:B1 *142:A3 6.07328e-05
8 *142:B1 *41:23 0.000252984
9 *142:B1 *42:23 0.000453625
10 *143:D *143:A 0.000111117
11 *143:D *143:B 3.96737e-05
12 *143:D *143:C 0.00024589
13 *143:D *42:6 1.83756e-05
14 *143:D *42:10 0.000498282
15 *143:D *42:23 0.000308568
16 *143:D *43:10 0
17 *143:D *43:21 0
18 *143:D *43:34 1.08461e-05
19 *145:A *142:B1 5.92849e-05
20 *146:B *40:8 0.000253956
21 *166:A *142:B1 0.000218788
22 *167:A *142:B1 0.000159851
23 *21:40 *142:B1 5.10957e-05
24 *21:40 *143:D 0.000186227
25 *21:59 *142:B1 0.000283522
*RES
1 *162:X *40:8 11.64 
2 *40:8 *143:D 16.365 
3 *40:8 *142:B1 19.11 
*END

*D_NET *41 0.00777977
*CONN
*I *141:A I *D sky130_fd_sc_hd__xnor2_1
*I *142:A3 I *D sky130_fd_sc_hd__o31a_1
*I *143:C I *D sky130_fd_sc_hd__or4_2
*I *163:X O *D sky130_fd_sc_hd__buf_1
*CAP
1 *141:A 0.000198958
2 *142:A3 7.73951e-05
3 *143:C 0.000234907
4 *163:X 0.000955641
5 *41:23 0.000864514
6 *41:8 0.00177871
7 *141:A *142:A2 0
8 *142:A3 *142:A1 0.000196381
9 *142:A3 *142:A2 0.000349598
10 *143:C *143:A 1.33293e-05
11 *143:C *143:B 0.00023468
12 *143:C *42:10 0.000437767
13 *41:8 *155:B 1.34594e-05
14 *41:23 *142:A1 0.000188277
15 *41:23 *142:A2 0
16 *41:23 *173:A 0.00028747
17 *41:23 *42:10 4.14369e-05
18 *41:23 *42:23 0.000764948
19 *141:B *141:A 0
20 *141:B *41:23 0
21 *142:B1 *142:A3 6.07328e-05
22 *142:B1 *41:23 0.000252984
23 *143:D *143:C 0.00024589
24 *152:B *143:C 0
25 *153:A *41:8 2.11084e-05
26 *156:A *41:23 0
27 *156:B *143:C 4.83324e-05
28 *156:B *41:23 2.97004e-06
29 *167:A *142:A3 8.65961e-05
30 *172:A *143:C 0.000265624
31 *21:40 *41:8 0.00015806
*RES
1 *163:X *41:8 14.055 
2 *41:8 *143:C 11.685 
3 *41:8 *41:23 15.15 
4 *41:23 *142:A3 7.155 
5 *41:23 *141:A 6.54 
*END

*D_NET *42 0.00790842
*CONN
*I *143:A I *D sky130_fd_sc_hd__or4_2
*I *142:A1 I *D sky130_fd_sc_hd__o31a_1
*I *140:A I *D sky130_fd_sc_hd__nor2_1
*I *155:A I *D sky130_fd_sc_hd__and2_1
*I *164:X O *D sky130_fd_sc_hd__buf_1
*CAP
1 *143:A 0.000314605
2 *142:A1 0.00032373
3 *140:A 0.000209282
4 *155:A 1.36534e-05
5 *164:X 0.000516559
6 *42:23 0.000707498
7 *42:10 0.000388155
8 *42:6 0.00103118
9 *140:A *43:49 0.000123225
10 *155:A *155:B 4.66108e-05
11 *42:6 *143:B 1.87074e-05
12 *42:6 *43:10 0.000224201
13 out[2] *142:A1 2.05641e-05
14 out[6] *42:10 0
15 *141:B *142:A1 0.000253827
16 *142:A3 *142:A1 0.000196381
17 *142:B1 *142:A1 0.000196381
18 *142:B1 *42:23 0.000453625
19 *143:C *143:A 1.33293e-05
20 *143:C *42:10 0.000437767
21 *143:D *143:A 0.000111117
22 *143:D *42:6 1.83756e-05
23 *143:D *42:10 0.000498282
24 *143:D *42:23 0.000308568
25 *152:B *140:A 0.00012555
26 *152:B *142:A1 8.69098e-05
27 *166:A *42:23 0.000203294
28 *172:A *42:10 2.42236e-05
29 *21:10 *143:A 1.54061e-06
30 *21:40 *155:A 4.66108e-05
31 *41:23 *142:A1 0.000188277
32 *41:23 *42:10 4.14369e-05
33 *41:23 *42:23 0.000764948
*RES
1 *164:X *42:6 8.26 
2 *42:6 *42:10 8.735 
3 *42:10 *155:A 4.05 
4 *42:10 *42:23 10.775 
5 *42:23 *140:A 5.17 
6 *42:23 *142:A1 14.63 
7 *42:6 *143:A 5.77 
*END

*D_NET *43 0.00711986
*CONN
*I *140:B I *D sky130_fd_sc_hd__nor2_1
*I *142:A2 I *D sky130_fd_sc_hd__o31a_1
*I *155:B I *D sky130_fd_sc_hd__and2_1
*I *157:A I *D sky130_fd_sc_hd__clkbuf_1
*I *143:B I *D sky130_fd_sc_hd__or4_2
*I *165:X O *D sky130_fd_sc_hd__dlymetal6s2s_1
*CAP
1 *140:B 0
2 *142:A2 0.000703078
3 *155:B 0.000108229
4 *157:A 0
5 *143:B 0.000337572
6 *165:X 0.000423818
7 *43:49 0.00106027
8 *43:34 0.000659032
9 *43:21 0.000414205
10 *43:10 0.000981985
11 *43:21 *173:A 0
12 *140:A *43:49 0.000123225
13 *141:A *142:A2 0
14 *142:A3 *142:A2 0.000349598
15 *142:B1 *142:A2 0
16 *143:C *143:B 0.00023468
17 *143:D *143:B 3.96737e-05
18 *143:D *43:10 0
19 *143:D *43:21 0
20 *143:D *43:34 1.08461e-05
21 *145:A *142:A2 5.92849e-05
22 *152:B *43:49 0.000124895
23 *153:A *43:49 0
24 *155:A *155:B 4.66108e-05
25 *164:A *43:10 0.000162404
26 *166:A *43:34 1.92979e-05
27 *167:A *142:A2 0.000177291
28 *21:40 *155:B 6.03315e-05
29 *21:40 *43:34 5.07362e-05
30 *21:40 *43:49 0.00038674
31 *21:59 *142:A2 0
32 *21:59 *43:49 0.000329688
33 *41:8 *155:B 1.34594e-05
34 *41:23 *142:A2 0
35 *42:6 *143:B 1.87074e-05
36 *42:6 *43:10 0.000224201
*RES
1 *165:X *43:10 12.255 
2 *43:10 *143:B 7.845 
3 *43:10 *43:21 3.42 
4 *43:21 *157:A 3.6 
5 *43:21 *43:34 2.955 
6 *43:34 *155:B 5.43 
7 *43:34 *43:49 11.405 
8 *43:49 *142:A2 18.05 
9 *43:49 *140:B 1.6 
*END

*D_NET *44 0.00642771
*CONN
*I *173:A I *D sky130_fd_sc_hd__buf_2
*I *154:X O *D sky130_fd_sc_hd__xor2_1
*CAP
1 *173:A 0.0019981
2 *154:X 0.0019981
3 *152:B *173:A 0.000115669
4 *156:A *173:A 0.000141445
5 *166:A *173:A 0.00177862
6 *170:A *173:A 0.000108304
7 *41:23 *173:A 0.00028747
8 *43:21 *173:A 0
*RES
1 *154:X *173:A 16.1164 
*END
