*SPEF "ieee 1481-1999"
*DESIGN "main"
*DATE "04:51:36 Friday April 25, 2025"
*VENDOR "The OpenROAD Project"
*PROGRAM "OpenROAD"
*VERSION "b16bda7e82721d10566ff7e2b68f1ff0be9f9e38"
*DESIGN_FLOW "NAME_SCOPE LOCAL" "PIN_CAP NONE"
*DIVIDER /
*DELIMITER :
*BUS_DELIMITER []
*T_UNIT 1 NS
*C_UNIT 1 PF
*R_UNIT 1 OHM
*L_UNIT 1 HENRY

*NAME_MAP
*1 A[0]
*2 A[1]
*3 A[2]
*4 A[3]
*5 A[4]
*6 A[5]
*7 A[6]
*8 A[7]
*9 B[0]
*10 B[1]
*11 B[2]
*12 B[3]
*13 B[4]
*14 B[5]
*15 B[6]
*16 B[7]
*19 opcode[0]
*20 opcode[1]
*21 opcode[2]
*22 out[0]
*23 out[1]
*24 out[2]
*25 out[3]
*26 out[4]
*27 out[5]
*28 out[6]
*29 out[7]
*30 _000_
*31 _001_
*32 _002_
*33 _003_
*34 _004_
*35 _005_
*36 _006_
*37 _007_
*38 _008_
*39 _009_
*40 _010_
*41 _011_
*42 _012_
*43 _013_
*44 _014_
*45 _015_
*46 _016_
*47 _017_
*48 _018_
*49 _019_
*50 _020_
*51 _021_
*52 _022_
*53 _023_
*54 _024_
*55 _025_
*56 _026_
*57 _027_
*58 _028_
*59 _029_
*60 _030_
*61 _031_
*62 _032_
*63 _033_
*64 _034_
*65 _035_
*66 _036_
*67 _037_
*68 _038_
*69 _039_
*70 _040_
*71 _041_
*72 _042_
*73 _043_
*74 _044_
*75 _045_
*76 _046_
*77 _047_
*78 _048_
*79 _049_
*80 _050_
*81 _051_
*82 _052_
*83 _053_
*84 _054_
*85 _055_
*86 _056_
*87 _057_
*88 _058_
*89 _059_
*90 _060_
*91 _061_
*92 _062_
*93 _063_
*94 _064_
*95 _065_
*96 _066_
*97 _067_
*98 _068_
*99 _069_
*100 _070_
*101 _071_
*102 _072_
*103 _073_
*104 _074_
*105 _075_
*106 _076_
*107 _077_
*108 _078_
*109 _079_
*110 _080_
*111 _081_
*112 _082_
*113 _083_
*114 _084_
*115 _085_
*116 _086_
*117 _087_
*118 _088_
*119 _089_
*120 _090_
*121 _091_
*122 _092_
*123 _093_
*124 _094_
*125 _095_
*126 _096_
*127 _097_
*128 _098_
*129 _099_
*130 _100_
*131 _101_
*132 _102_
*133 _103_
*134 _104_
*135 _105_
*136 _106_
*137 _107_
*138 _108_
*139 _109_
*140 _110_
*141 _111_
*142 _112_
*143 _113_
*144 _114_
*145 _115_
*146 _116_
*147 _117_
*148 _118_
*149 _119_
*150 _120_
*151 _121_
*152 _122_
*153 _123_
*154 _124_
*155 _125_
*156 _126_
*157 _127_
*158 _128_
*159 _129_
*160 _130_
*161 _131_
*162 _132_
*163 _133_
*164 _134_
*165 _135_
*166 _136_
*167 _137_
*168 _138_
*169 _139_
*170 _140_
*171 _141_
*172 _142_
*173 _143_
*174 _144_
*175 _145_
*176 _146_
*177 _147_
*178 _148_
*179 _149_
*180 _150_
*181 _151_
*182 _152_
*183 _153_
*184 _154_
*185 _155_
*186 _156_
*187 _157_
*188 _158_
*189 _159_
*190 _160_
*191 net1
*192 net10
*193 net11
*194 net12
*195 net13
*196 net14
*197 net15
*198 net16
*199 net17
*200 net18
*201 net19
*202 net2
*203 net20
*204 net21
*205 net22
*206 net23
*207 net24
*208 net25
*209 net26
*210 net27
*211 net28
*212 net29
*213 net3
*214 net30
*215 net4
*216 net5
*217 net6
*218 net7
*219 net8
*220 net9
*221 ANTENNA_1
*222 ANTENNA_2
*223 FILLER_0_0_109
*224 FILLER_0_0_113
*225 FILLER_0_0_118
*226 FILLER_0_0_13
*227 FILLER_0_0_23
*228 FILLER_0_0_27
*229 FILLER_0_0_29
*230 FILLER_0_0_49
*231 FILLER_0_0_55
*232 FILLER_0_0_62
*233 FILLER_0_0_7
*234 FILLER_0_0_71
*235 FILLER_0_0_83
*236 FILLER_0_0_85
*237 FILLER_0_0_97
*238 FILLER_0_10_101
*239 FILLER_0_10_113
*240 FILLER_0_10_123
*241 FILLER_0_10_15
*242 FILLER_0_10_27
*243 FILLER_0_10_29
*244 FILLER_0_10_3
*245 FILLER_0_10_35
*246 FILLER_0_10_45
*247 FILLER_0_10_57
*248 FILLER_0_10_70
*249 FILLER_0_10_82
*250 FILLER_0_10_89
*251 FILLER_0_11_111
*252 FILLER_0_11_113
*253 FILLER_0_11_119
*254 FILLER_0_11_21
*255 FILLER_0_11_39
*256 FILLER_0_11_51
*257 FILLER_0_11_55
*258 FILLER_0_11_57
*259 FILLER_0_11_69
*260 FILLER_0_11_73
*261 FILLER_0_11_80
*262 FILLER_0_11_87
*263 FILLER_0_11_9
*264 FILLER_0_11_99
*265 FILLER_0_12_103
*266 FILLER_0_12_117
*267 FILLER_0_12_18
*268 FILLER_0_12_26
*269 FILLER_0_12_29
*270 FILLER_0_12_44
*271 FILLER_0_12_56
*272 FILLER_0_12_6
*273 FILLER_0_12_83
*274 FILLER_0_12_85
*275 FILLER_0_12_93
*276 FILLER_0_13_110
*277 FILLER_0_13_113
*278 FILLER_0_13_121
*279 FILLER_0_13_16
*280 FILLER_0_13_28
*281 FILLER_0_13_40
*282 FILLER_0_13_44
*283 FILLER_0_13_53
*284 FILLER_0_13_57
*285 FILLER_0_13_69
*286 FILLER_0_13_74
*287 FILLER_0_13_86
*288 FILLER_0_13_98
*289 FILLER_0_14_104
*290 FILLER_0_14_110
*291 FILLER_0_14_117
*292 FILLER_0_14_20
*293 FILLER_0_14_3
*294 FILLER_0_14_45
*295 FILLER_0_14_57
*296 FILLER_0_14_69
*297 FILLER_0_14_81
*298 FILLER_0_14_92
*299 FILLER_0_15_105
*300 FILLER_0_15_111
*301 FILLER_0_15_113
*302 FILLER_0_15_13
*303 FILLER_0_15_19
*304 FILLER_0_15_31
*305 FILLER_0_15_43
*306 FILLER_0_15_55
*307 FILLER_0_15_57
*308 FILLER_0_15_61
*309 FILLER_0_15_69
*310 FILLER_0_15_81
*311 FILLER_0_15_93
*312 FILLER_0_16_10
*313 FILLER_0_16_105
*314 FILLER_0_16_120
*315 FILLER_0_16_124
*316 FILLER_0_16_22
*317 FILLER_0_16_29
*318 FILLER_0_16_38
*319 FILLER_0_16_50
*320 FILLER_0_16_71
*321 FILLER_0_16_83
*322 FILLER_0_16_85
*323 FILLER_0_17_108
*324 FILLER_0_17_113
*325 FILLER_0_17_119
*326 FILLER_0_17_21
*327 FILLER_0_17_33
*328 FILLER_0_17_42
*329 FILLER_0_17_64
*330 FILLER_0_17_7
*331 FILLER_0_17_70
*332 FILLER_0_17_96
*333 FILLER_0_18_102
*334 FILLER_0_18_115
*335 FILLER_0_18_119
*336 FILLER_0_18_15
*337 FILLER_0_18_27
*338 FILLER_0_18_29
*339 FILLER_0_18_3
*340 FILLER_0_18_41
*341 FILLER_0_18_53
*342 FILLER_0_18_65
*343 FILLER_0_18_70
*344 FILLER_0_18_90
*345 FILLER_0_19_103
*346 FILLER_0_19_107
*347 FILLER_0_19_122
*348 FILLER_0_19_15
*349 FILLER_0_19_27
*350 FILLER_0_19_39
*351 FILLER_0_19_53
*352 FILLER_0_19_57
*353 FILLER_0_19_69
*354 FILLER_0_19_7
*355 FILLER_0_19_81
*356 FILLER_0_19_91
*357 FILLER_0_1_102
*358 FILLER_0_1_113
*359 FILLER_0_1_19
*360 FILLER_0_1_42
*361 FILLER_0_1_50
*362 FILLER_0_1_55
*363 FILLER_0_1_61
*364 FILLER_0_1_7
*365 FILLER_0_1_73
*366 FILLER_0_1_82
*367 FILLER_0_1_94
*368 FILLER_0_20_108
*369 FILLER_0_20_112
*370 FILLER_0_20_118
*371 FILLER_0_20_15
*372 FILLER_0_20_27
*373 FILLER_0_20_3
*374 FILLER_0_20_32
*375 FILLER_0_20_44
*376 FILLER_0_20_62
*377 FILLER_0_20_71
*378 FILLER_0_20_81
*379 FILLER_0_20_85
*380 FILLER_0_20_89
*381 FILLER_0_21_104
*382 FILLER_0_21_113
*383 FILLER_0_21_19
*384 FILLER_0_21_31
*385 FILLER_0_21_43
*386 FILLER_0_21_55
*387 FILLER_0_21_57
*388 FILLER_0_21_69
*389 FILLER_0_21_7
*390 FILLER_0_21_75
*391 FILLER_0_21_83
*392 FILLER_0_21_95
*393 FILLER_0_22_105
*394 FILLER_0_22_14
*395 FILLER_0_22_26
*396 FILLER_0_22_29
*397 FILLER_0_22_3
*398 FILLER_0_22_41
*399 FILLER_0_22_49
*400 FILLER_0_22_58
*401 FILLER_0_22_7
*402 FILLER_0_22_70
*403 FILLER_0_22_83
*404 FILLER_0_22_85
*405 FILLER_0_22_97
*406 FILLER_0_23_102
*407 FILLER_0_23_109
*408 FILLER_0_23_123
*409 FILLER_0_23_28
*410 FILLER_0_23_32
*411 FILLER_0_23_48
*412 FILLER_0_23_54
*413 FILLER_0_23_57
*414 FILLER_0_23_69
*415 FILLER_0_23_81
*416 FILLER_0_23_85
*417 FILLER_0_24_124
*418 FILLER_0_24_15
*419 FILLER_0_24_20
*420 FILLER_0_24_29
*421 FILLER_0_24_3
*422 FILLER_0_24_35
*423 FILLER_0_24_47
*424 FILLER_0_24_57
*425 FILLER_0_24_64
*426 FILLER_0_24_68
*427 FILLER_0_24_76
*428 FILLER_0_24_80
*429 FILLER_0_25_105
*430 FILLER_0_25_111
*431 FILLER_0_25_120
*432 FILLER_0_25_124
*433 FILLER_0_25_19
*434 FILLER_0_25_27
*435 FILLER_0_25_34
*436 FILLER_0_25_46
*437 FILLER_0_25_54
*438 FILLER_0_25_57
*439 FILLER_0_25_7
*440 FILLER_0_25_70
*441 FILLER_0_25_83
*442 FILLER_0_25_91
*443 FILLER_0_26_108
*444 FILLER_0_26_112
*445 FILLER_0_26_124
*446 FILLER_0_26_19
*447 FILLER_0_26_27
*448 FILLER_0_26_3
*449 FILLER_0_26_40
*450 FILLER_0_26_44
*451 FILLER_0_26_52
*452 FILLER_0_26_67
*453 FILLER_0_26_71
*454 FILLER_0_26_76
*455 FILLER_0_26_85
*456 FILLER_0_26_9
*457 FILLER_0_26_97
*458 FILLER_0_27_109
*459 FILLER_0_27_113
*460 FILLER_0_27_12
*461 FILLER_0_27_24
*462 FILLER_0_27_29
*463 FILLER_0_27_37
*464 FILLER_0_27_45
*465 FILLER_0_27_53
*466 FILLER_0_27_57
*467 FILLER_0_27_61
*468 FILLER_0_27_75
*469 FILLER_0_27_83
*470 FILLER_0_27_85
*471 FILLER_0_27_97
*472 FILLER_0_2_102
*473 FILLER_0_2_17
*474 FILLER_0_2_24
*475 FILLER_0_2_29
*476 FILLER_0_2_3
*477 FILLER_0_2_41
*478 FILLER_0_2_58
*479 FILLER_0_2_70
*480 FILLER_0_2_82
*481 FILLER_0_2_9
*482 FILLER_0_2_98
*483 FILLER_0_3_100
*484 FILLER_0_3_19
*485 FILLER_0_3_47
*486 FILLER_0_3_55
*487 FILLER_0_3_64
*488 FILLER_0_3_7
*489 FILLER_0_3_76
*490 FILLER_0_3_88
*491 FILLER_0_3_91
*492 FILLER_0_4_111
*493 FILLER_0_4_124
*494 FILLER_0_4_15
*495 FILLER_0_4_27
*496 FILLER_0_4_3
*497 FILLER_0_4_34
*498 FILLER_0_4_46
*499 FILLER_0_4_58
*500 FILLER_0_4_70
*501 FILLER_0_4_82
*502 FILLER_0_4_95
*503 FILLER_0_5_111
*504 FILLER_0_5_13
*505 FILLER_0_5_25
*506 FILLER_0_5_3
*507 FILLER_0_5_37
*508 FILLER_0_5_49
*509 FILLER_0_5_55
*510 FILLER_0_5_57
*511 FILLER_0_5_69
*512 FILLER_0_5_81
*513 FILLER_0_5_87
*514 FILLER_0_5_99
*515 FILLER_0_6_109
*516 FILLER_0_6_121
*517 FILLER_0_6_15
*518 FILLER_0_6_27
*519 FILLER_0_6_33
*520 FILLER_0_6_41
*521 FILLER_0_6_53
*522 FILLER_0_6_65
*523 FILLER_0_6_69
*524 FILLER_0_6_7
*525 FILLER_0_6_83
*526 FILLER_0_6_85
*527 FILLER_0_6_97
*528 FILLER_0_7_103
*529 FILLER_0_7_12
*530 FILLER_0_7_122
*531 FILLER_0_7_24
*532 FILLER_0_7_3
*533 FILLER_0_7_36
*534 FILLER_0_7_48
*535 FILLER_0_7_57
*536 FILLER_0_7_76
*537 FILLER_0_7_95
*538 FILLER_0_8_104
*539 FILLER_0_8_116
*540 FILLER_0_8_19
*541 FILLER_0_8_27
*542 FILLER_0_8_29
*543 FILLER_0_8_36
*544 FILLER_0_8_48
*545 FILLER_0_8_7
*546 FILLER_0_8_81
*547 FILLER_0_8_92
*548 FILLER_0_9_107
*549 FILLER_0_9_111
*550 FILLER_0_9_119
*551 FILLER_0_9_12
*552 FILLER_0_9_24
*553 FILLER_0_9_3
*554 FILLER_0_9_36
*555 FILLER_0_9_48
*556 FILLER_0_9_57
*557 FILLER_0_9_67
*558 FILLER_0_9_79
*559 FILLER_0_9_91
*560 FILLER_0_9_95
*561 PHY_EDGE_ROW_0_Left_28
*562 PHY_EDGE_ROW_0_Right_0
*563 PHY_EDGE_ROW_10_Left_38
*564 PHY_EDGE_ROW_10_Right_10
*565 PHY_EDGE_ROW_11_Left_39
*566 PHY_EDGE_ROW_11_Right_11
*567 PHY_EDGE_ROW_12_Left_40
*568 PHY_EDGE_ROW_12_Right_12
*569 PHY_EDGE_ROW_13_Left_41
*570 PHY_EDGE_ROW_13_Right_13
*571 PHY_EDGE_ROW_14_Left_42
*572 PHY_EDGE_ROW_14_Right_14
*573 PHY_EDGE_ROW_15_Left_43
*574 PHY_EDGE_ROW_15_Right_15
*575 PHY_EDGE_ROW_16_Left_44
*576 PHY_EDGE_ROW_16_Right_16
*577 PHY_EDGE_ROW_17_Left_45
*578 PHY_EDGE_ROW_17_Right_17
*579 PHY_EDGE_ROW_18_Left_46
*580 PHY_EDGE_ROW_18_Right_18
*581 PHY_EDGE_ROW_19_Left_47
*582 PHY_EDGE_ROW_19_Right_19
*583 PHY_EDGE_ROW_1_Left_29
*584 PHY_EDGE_ROW_1_Right_1
*585 PHY_EDGE_ROW_20_Left_48
*586 PHY_EDGE_ROW_20_Right_20
*587 PHY_EDGE_ROW_21_Left_49
*588 PHY_EDGE_ROW_21_Right_21
*589 PHY_EDGE_ROW_22_Left_50
*590 PHY_EDGE_ROW_22_Right_22
*591 PHY_EDGE_ROW_23_Left_51
*592 PHY_EDGE_ROW_23_Right_23
*593 PHY_EDGE_ROW_24_Left_52
*594 PHY_EDGE_ROW_24_Right_24
*595 PHY_EDGE_ROW_25_Left_53
*596 PHY_EDGE_ROW_25_Right_25
*597 PHY_EDGE_ROW_26_Left_54
*598 PHY_EDGE_ROW_26_Right_26
*599 PHY_EDGE_ROW_27_Left_55
*600 PHY_EDGE_ROW_27_Right_27
*601 PHY_EDGE_ROW_2_Left_30
*602 PHY_EDGE_ROW_2_Right_2
*603 PHY_EDGE_ROW_3_Left_31
*604 PHY_EDGE_ROW_3_Right_3
*605 PHY_EDGE_ROW_4_Left_32
*606 PHY_EDGE_ROW_4_Right_4
*607 PHY_EDGE_ROW_5_Left_33
*608 PHY_EDGE_ROW_5_Right_5
*609 PHY_EDGE_ROW_6_Left_34
*610 PHY_EDGE_ROW_6_Right_6
*611 PHY_EDGE_ROW_7_Left_35
*612 PHY_EDGE_ROW_7_Right_7
*613 PHY_EDGE_ROW_8_Left_36
*614 PHY_EDGE_ROW_8_Right_8
*615 PHY_EDGE_ROW_9_Left_37
*616 PHY_EDGE_ROW_9_Right_9
*617 TAP_TAPCELL_ROW_0_56
*618 TAP_TAPCELL_ROW_0_57
*619 TAP_TAPCELL_ROW_0_58
*620 TAP_TAPCELL_ROW_0_59
*621 TAP_TAPCELL_ROW_10_78
*622 TAP_TAPCELL_ROW_10_79
*623 TAP_TAPCELL_ROW_11_80
*624 TAP_TAPCELL_ROW_11_81
*625 TAP_TAPCELL_ROW_12_82
*626 TAP_TAPCELL_ROW_12_83
*627 TAP_TAPCELL_ROW_13_84
*628 TAP_TAPCELL_ROW_13_85
*629 TAP_TAPCELL_ROW_14_86
*630 TAP_TAPCELL_ROW_14_87
*631 TAP_TAPCELL_ROW_15_88
*632 TAP_TAPCELL_ROW_15_89
*633 TAP_TAPCELL_ROW_16_90
*634 TAP_TAPCELL_ROW_16_91
*635 TAP_TAPCELL_ROW_17_92
*636 TAP_TAPCELL_ROW_17_93
*637 TAP_TAPCELL_ROW_18_94
*638 TAP_TAPCELL_ROW_18_95
*639 TAP_TAPCELL_ROW_19_96
*640 TAP_TAPCELL_ROW_19_97
*641 TAP_TAPCELL_ROW_1_60
*642 TAP_TAPCELL_ROW_1_61
*643 TAP_TAPCELL_ROW_20_98
*644 TAP_TAPCELL_ROW_20_99
*645 TAP_TAPCELL_ROW_21_100
*646 TAP_TAPCELL_ROW_21_101
*647 TAP_TAPCELL_ROW_22_102
*648 TAP_TAPCELL_ROW_22_103
*649 TAP_TAPCELL_ROW_23_104
*650 TAP_TAPCELL_ROW_23_105
*651 TAP_TAPCELL_ROW_24_106
*652 TAP_TAPCELL_ROW_24_107
*653 TAP_TAPCELL_ROW_25_108
*654 TAP_TAPCELL_ROW_25_109
*655 TAP_TAPCELL_ROW_26_110
*656 TAP_TAPCELL_ROW_26_111
*657 TAP_TAPCELL_ROW_27_112
*658 TAP_TAPCELL_ROW_27_113
*659 TAP_TAPCELL_ROW_27_114
*660 TAP_TAPCELL_ROW_27_115
*661 TAP_TAPCELL_ROW_2_62
*662 TAP_TAPCELL_ROW_2_63
*663 TAP_TAPCELL_ROW_3_64
*664 TAP_TAPCELL_ROW_3_65
*665 TAP_TAPCELL_ROW_4_66
*666 TAP_TAPCELL_ROW_4_67
*667 TAP_TAPCELL_ROW_5_68
*668 TAP_TAPCELL_ROW_5_69
*669 TAP_TAPCELL_ROW_6_70
*670 TAP_TAPCELL_ROW_6_71
*671 TAP_TAPCELL_ROW_7_72
*672 TAP_TAPCELL_ROW_7_73
*673 TAP_TAPCELL_ROW_8_74
*674 TAP_TAPCELL_ROW_8_75
*675 TAP_TAPCELL_ROW_9_76
*676 TAP_TAPCELL_ROW_9_77
*677 _161_
*678 _162_
*679 _163_
*680 _164_
*681 _165_
*682 _166_
*683 _167_
*684 _168_
*685 _169_
*686 _170_
*687 _171_
*688 _172_
*689 _173_
*690 _174_
*691 _175_
*692 _176_
*693 _177_
*694 _178_
*695 _179_
*696 _180_
*697 _181_
*698 _182_
*699 _183_
*700 _184_
*701 _185_
*702 _186_
*703 _187_
*704 _188_
*705 _189_
*706 _190_
*707 _191_
*708 _192_
*709 _193_
*710 _194_
*711 _195_
*712 _196_
*713 _197_
*714 _198_
*715 _199_
*716 _200_
*717 _201_
*718 _202_
*719 _203_
*720 _204_
*721 _205_
*722 _206_
*723 _207_
*724 _208_
*725 _209_
*726 _210_
*727 _211_
*728 _212_
*729 _213_
*730 _214_
*731 _215_
*732 _216_
*733 _217_
*734 _218_
*735 _219_
*736 _220_
*737 _221_
*738 _222_
*739 _223_
*740 _224_
*741 _225_
*742 _226_
*743 _227_
*744 _228_
*745 _229_
*746 _230_
*747 _231_
*748 _232_
*749 _233_
*750 _234_
*751 _235_
*752 _236_
*753 _237_
*754 _238_
*755 _239_
*756 _240_
*757 _241_
*758 _242_
*759 _243_
*760 _244_
*761 _245_
*762 _246_
*763 _247_
*764 _248_
*765 _249_
*766 _250_
*767 _251_
*768 _252_
*769 _253_
*770 _254_
*771 _255_
*772 _256_
*773 _257_
*774 _258_
*775 _259_
*776 _260_
*777 _261_
*778 _262_
*779 _263_
*780 _264_
*781 _265_
*782 _266_
*783 _267_
*784 _268_
*785 _269_
*786 _270_
*787 _271_
*788 _272_
*789 _273_
*790 _274_
*791 _275_
*792 _276_
*793 _277_
*794 _278_
*795 _279_
*796 _280_
*797 _281_
*798 _282_
*799 _283_
*800 _284_
*801 _285_
*802 _286_
*803 _287_
*804 _288_
*805 _289_
*806 _290_
*807 _291_
*808 _292_
*809 _293_
*810 _294_
*811 _295_
*812 _296_
*813 _297_
*814 _298_
*815 _299_
*816 _300_
*817 _301_
*818 _302_
*819 _303_
*820 _304_
*821 _305_
*822 _306_
*823 _307_
*824 _308_
*825 _309_
*826 _310_
*827 _311_
*828 _312_
*829 _313_
*830 _314_
*831 _315_
*832 _316_
*833 _317_
*834 _318_
*835 _319_
*836 _320_
*837 _321_
*838 _322_
*839 _323_
*840 _324_
*841 _325_
*842 _326_
*843 _327_
*844 _328_
*845 _329_
*846 input1
*847 input10
*848 input11
*849 input12
*850 input13
*851 input14
*852 input15
*853 input16
*854 input17
*855 input18
*856 input19
*857 input2
*858 input3
*859 input4
*860 input5
*861 input6
*862 input7
*863 input8
*864 input9
*865 output20
*866 output21
*867 output22
*868 output23
*869 output24
*870 output25
*871 output26
*872 output27
*873 rebuffer1
*874 rebuffer2
*875 rebuffer3

*PORTS
A[0] I
A[1] I
A[2] I
A[3] I
A[4] I
A[5] I
A[6] I
A[7] I
B[0] I
B[1] I
B[2] I
B[3] I
B[4] I
B[5] I
B[6] I
B[7] I
opcode[0] I
opcode[1] I
opcode[2] I
out[0] O
out[1] O
out[2] O
out[3] O
out[4] O
out[5] O
out[6] O
out[7] O

*D_NET *1 0.00116085
*CONN
*P A[0] I
*I *846:A I *D sky130_fd_sc_hd__buf_1
*CAP
1 A[0] 0.000474126
2 *846:A 0
3 *1:17 0.000474126
4 *1:17 *857:A 0
5 *1:17 *16:17 0
6 *1:17 *62:32 0
7 *1:17 *93:20 0.000103868
8 *1:17 *111:16 0.00010873
*RES
1 A[0] *1:17 27.8627 
2 *1:17 *846:A 23 
*END

*D_NET *2 0.00132108
*CONN
*P A[1] I
*I *857:A I *D sky130_fd_sc_hd__clkbuf_4
*CAP
1 A[1] 0.000519091
2 *857:A 0.000519091
3 *857:A *858:A 0
4 *857:A *36:22 0.000186381
5 *857:A *110:14 4.82567e-05
6 *857:A *192:50 4.82567e-05
7 *1:17 *857:A 0
*RES
1 A[1] *857:A 48.3662 
*END

*D_NET *3 0.00135233
*CONN
*P A[2] I
*I *858:A I *D sky130_fd_sc_hd__clkbuf_2
*CAP
1 A[2] 0.000520769
2 *858:A 0.000520769
3 *858:A *859:A 0
4 *858:A *110:14 0.000155396
5 *858:A *192:50 0.000155396
6 *857:A *858:A 0
*RES
1 A[2] *858:A 48.9255 
*END

*D_NET *4 0.00143493
*CONN
*P A[3] I
*I *859:A I *D sky130_fd_sc_hd__clkbuf_2
*CAP
1 A[3] 0.000476829
2 *859:A 0.000476829
3 *859:A *77:12 4.68569e-05
4 *859:A *87:24 0.000333405
5 *859:A *192:50 0.000101007
6 *858:A *859:A 0
*RES
1 A[3] *859:A 48.4602 
*END

*D_NET *5 0.00158492
*CONN
*P A[4] I
*I *860:A I *D sky130_fd_sc_hd__buf_2
*CAP
1 A[4] 0.000574521
2 *860:A 0
3 *5:13 0.000574521
4 *5:13 *798:A 0.000181805
5 *5:13 *861:A 0
6 *5:13 *76:14 0.000126724
7 *5:13 *77:8 2.73437e-05
8 *5:13 *87:24 0
9 *5:13 *91:14 0
10 *5:13 *217:10 0.000100007
*RES
1 A[4] *5:13 27.3578 
2 *5:13 *860:A 23 
*END

*D_NET *6 0.00110914
*CONN
*P A[5] I
*I *861:A I *D sky130_fd_sc_hd__clkbuf_2
*CAP
1 A[5] 0.000438769
2 *861:A 0.000438769
3 *861:A *862:A 0
4 *861:A *36:14 0
5 *861:A *62:40 0
6 *861:A *93:28 9.0086e-05
7 *861:A *112:24 2.61852e-05
8 *861:A *113:12 9.44959e-05
9 *861:A *217:10 2.08324e-05
10 *5:13 *861:A 0
*RES
1 A[5] *861:A 48.5734 
*END

*D_NET *7 0.000825516
*CONN
*P A[6] I
*I *862:A I *D sky130_fd_sc_hd__buf_2
*CAP
1 A[6] 0.000364925
2 *862:A 0.000364925
3 *862:A *8:17 0
4 *862:A *36:14 3.06253e-05
5 *862:A *93:28 0
6 *862:A *134:28 4.44086e-05
7 *862:A *204:22 2.0632e-05
8 *861:A *862:A 0
*RES
1 A[6] *862:A 48.4116 
*END

*D_NET *8 0.000952236
*CONN
*P A[7] I
*I *863:A I *D sky130_fd_sc_hd__clkbuf_2
*CAP
1 A[7] 0.000426876
2 *863:A 0
3 *8:17 0.000426876
4 *8:17 *36:6 9.84851e-05
5 *8:17 *36:14 0
6 *862:A *8:17 0
*RES
1 A[7] *8:17 29.7477 
2 *8:17 *863:A 23 
*END

*D_NET *9 0.00106197
*CONN
*P B[0] I
*I *864:A I *D sky130_fd_sc_hd__clkbuf_4
*CAP
1 B[0] 0.000442026
2 *864:A 0
3 *9:11 0.000442026
4 *9:11 *10:13 0
5 *9:11 *50:28 0.000177922
6 *9:11 *204:22 0
*RES
1 B[0] *9:11 28.0384 
2 *9:11 *864:A 23 
*END

*D_NET *10 0.00118743
*CONN
*P B[1] I
*I *847:A I *D sky130_fd_sc_hd__buf_1
*CAP
1 B[1] 0.000432023
2 *847:A 0
3 *10:13 0.000432023
4 *10:13 *11:17 0
5 *10:13 *50:28 0
6 *10:13 *87:24 6.49315e-05
7 *10:13 *204:22 4.93791e-05
8 *10:13 *220:8 7.9284e-05
9 *10:13 *220:10 2.33476e-05
10 *10:13 *220:29 0.000106445
11 *9:11 *10:13 0
*RES
1 B[1] *10:13 29.7012 
2 *10:13 *847:A 23 
*END

*D_NET *11 0.00109725
*CONN
*P B[2] I
*I *848:A I *D sky130_fd_sc_hd__clkbuf_2
*CAP
1 B[2] 0.000370339
2 *848:A 0
3 *11:17 0.000370339
4 *11:17 *845:B1 0.000309001
5 *11:17 *849:A 0
6 *11:17 *60:16 0
7 *11:17 *87:24 6.07327e-06
8 *11:17 *93:18 2.19236e-05
9 *11:17 *118:20 1.9574e-05
10 *10:13 *11:17 0
*RES
1 B[2] *11:17 27.6348 
2 *11:17 *848:A 23 
*END

*D_NET *12 0.000982848
*CONN
*P B[3] I
*I *849:A I *D sky130_fd_sc_hd__dlymetal6s2s_1
*CAP
1 B[3] 0.000425751
2 *849:A 0.000425751
3 *849:A *850:A 0
4 *849:A *60:18 1.34542e-05
5 *849:A *62:22 2.11066e-05
6 *849:A *102:14 9.67842e-05
7 *11:17 *849:A 0
*RES
1 B[3] *849:A 49.8062 
*END

*D_NET *13 0.00117723
*CONN
*P B[4] I
*I *850:A I *D sky130_fd_sc_hd__buf_2
*CAP
1 B[4] 0.000491424
2 *850:A 0.000491424
3 *850:A *14:17 0
4 *850:A *50:28 5.98951e-05
5 *850:A *102:22 1.73957e-05
6 *850:A *110:26 9.72913e-05
7 *850:A *113:24 1.98035e-05
8 *849:A *850:A 0
*RES
1 B[4] *850:A 48.1354 
*END

*D_NET *14 0.00119613
*CONN
*P B[5] I
*I *851:A I *D sky130_fd_sc_hd__clkbuf_2
*CAP
1 B[5] 0.000516412
2 *851:A 0
3 *14:17 0.000516412
4 *14:17 *62:22 5.81775e-05
5 *14:17 *111:14 5.35327e-05
6 *14:17 *111:16 5.15937e-05
7 *850:A *14:17 0
*RES
1 B[5] *14:17 27.6348 
2 *14:17 *851:A 23 
*END

*D_NET *15 0.00112983
*CONN
*P B[6] I
*I *852:A I *D sky130_fd_sc_hd__buf_2
*CAP
1 B[6] 0.000452782
2 *852:A 0
3 *15:17 0.000452782
4 *15:17 *805:A2 2.64616e-05
5 *15:17 *48:41 6.17437e-06
6 *15:17 *62:22 3.89632e-05
7 *15:17 *62:63 5.12564e-05
8 *15:17 *93:20 4.82745e-05
9 *15:17 *111:16 5.31385e-05
*RES
1 B[6] *15:17 27.1584 
2 *15:17 *852:A 23 
*END

*D_NET *16 0.00131623
*CONN
*P B[7] I
*I *853:A I *D sky130_fd_sc_hd__dlymetal6s2s_1
*CAP
1 B[7] 0.000525309
2 *853:A 0
3 *16:17 0.000525309
4 *16:17 *48:24 6.17437e-06
5 *16:17 *62:63 0
6 *16:17 *93:20 0.000127284
7 *16:17 *111:16 0.000132155
8 *1:17 *16:17 0
*RES
1 B[7] *16:17 28.2148 
2 *16:17 *853:A 23 
*END

*D_NET *19 0.000989791
*CONN
*P opcode[0] I
*I *854:A I *D sky130_fd_sc_hd__clkbuf_2
*CAP
1 opcode[0] 0.000481277
2 *854:A 0.000481277
3 *854:A *29:8 0
4 *854:A *199:6 2.7237e-05
*RES
1 opcode[0] *854:A 47.9221 
*END

*D_NET *20 0.000974852
*CONN
*P opcode[1] I
*I *855:A I *D sky130_fd_sc_hd__buf_2
*CAP
1 opcode[1] 0.000444937
2 *855:A 0.000444937
3 *855:A *133:123 5.56356e-05
4 *855:A *134:10 0
5 *855:A *144:26 2.93431e-05
*RES
1 opcode[1] *855:A 47.3214 
*END

*D_NET *21 0.00100547
*CONN
*P opcode[2] I
*I *856:A I *D sky130_fd_sc_hd__clkbuf_4
*CAP
1 opcode[2] 0.000434925
2 *856:A 0.000434925
3 *856:A *36:6 9.84851e-05
4 *856:A *219:6 3.71369e-05
*RES
1 opcode[2] *856:A 47.4457 
*END

*D_NET *22 0.00144669
*CONN
*P out[0] O
*I *865:X O *D sky130_fd_sc_hd__buf_2
*CAP
1 out[0] 0.000308136
2 *865:X 0.000373184
3 *22:10 0.00068132
4 *22:10 *58:8 8.4047e-05
*RES
1 *865:X *22:10 45.2811 
2 *22:10 out[0] 8.9296 
*END

*D_NET *23 0.00202388
*CONN
*P out[1] O
*I *866:X O *D sky130_fd_sc_hd__buf_2
*CAP
1 out[1] 0.000701526
2 *866:X 0.000701526
3 out[1] *48:114 0
4 out[1] *96:18 0.000517206
5 out[1] *106:38 0.00010362
6 out[1] *125:16 0
*RES
1 *866:X out[1] 49.1744 
*END

*D_NET *24 0.00123077
*CONN
*P out[2] O
*I *867:X O *D sky130_fd_sc_hd__buf_2
*CAP
1 out[2] 0.000579601
2 *867:X 0.000579601
3 out[2] *31:20 0
4 out[2] *31:32 4.43812e-07
5 out[2] *95:26 7.11277e-05
*RES
1 *867:X out[2] 47.8691 
*END

*D_NET *25 0.00133677
*CONN
*P out[3] O
*I *868:X O *D sky130_fd_sc_hd__buf_2
*CAP
1 out[3] 0.000500526
2 *868:X 0.000500526
3 out[3] *44:24 1.74731e-05
4 out[3] *95:20 0.000130212
5 out[3] *164:14 5.79146e-05
6 out[3] *175:70 0.00012758
7 out[3] *188:71 2.54169e-06
*RES
1 *868:X out[3] 48.5734 
*END

*D_NET *26 0.00100915
*CONN
*P out[4] O
*I *869:X O *D sky130_fd_sc_hd__buf_2
*CAP
1 out[4] 0.000467369
2 *869:X 0.000467369
3 out[4] *806:B2 5.3304e-05
4 out[4] *135:10 2.11066e-05
*RES
1 *869:X out[4] 49.6532 
*END

*D_NET *27 0.00144779
*CONN
*P out[5] O
*I *870:X O *D sky130_fd_sc_hd__buf_4
*CAP
1 out[5] 0.000556415
2 *870:X 0.000556415
3 out[5] *96:34 0
4 out[5] *106:20 6.09406e-05
5 out[5] *215:56 0.000151685
6 out[5] *220:143 0.000122337
*RES
1 *870:X out[5] 49.0114 
*END

*D_NET *28 0.00094305
*CONN
*P out[6] O
*I *871:X O *D sky130_fd_sc_hd__buf_2
*CAP
1 out[6] 0.000312965
2 *871:X 0.000312965
3 out[6] *151:38 1.5289e-05
4 out[6] *209:28 0.00030183
*RES
1 *871:X out[6] 47.1648 
*END

*D_NET *29 0.000885847
*CONN
*P out[7] O
*I *872:X O *D sky130_fd_sc_hd__buf_2
*CAP
1 out[7] 0.000220151
2 *872:X 0.000222773
3 *29:8 0.000442924
4 *854:A *29:8 0
*RES
1 *872:X *29:8 42.5468 
2 *29:8 out[7] 8.84373 
*END

*D_NET *30 0.0208421
*CONN
*I *829:A1 I *D sky130_fd_sc_hd__a21oi_1
*I *838:A1 I *D sky130_fd_sc_hd__a31o_1
*I *764:A1 I *D sky130_fd_sc_hd__a311o_4
*I *830:A1 I *D sky130_fd_sc_hd__a31o_1
*I *749:X O *D sky130_fd_sc_hd__or2b_2
*CAP
1 *829:A1 0
2 *838:A1 0
3 *764:A1 0
4 *830:A1 0
5 *749:X 0.000320401
6 *30:89 0.000854384
7 *30:76 0.00127321
8 *30:74 0.00117586
9 *30:48 0.0010282
10 *30:32 0.00114616
11 *30:22 0.00111418
12 *30:14 0.00240517
13 *30:12 0.00097232
14 *30:12 *80:18 0.00038339
15 *30:12 *127:102 0.000235687
16 *30:12 *181:10 5.50106e-05
17 *30:12 *194:67 1.41129e-05
18 *30:12 *195:87 5.50049e-05
19 *30:12 *212:24 0.000269759
20 *30:12 *212:32 0.000150691
21 *30:14 *37:10 1.41611e-05
22 *30:14 *64:31 5.30694e-05
23 *30:14 *101:14 0.000826444
24 *30:14 *121:35 0.000779276
25 *30:14 *182:10 0.00022612
26 *30:22 *765:C 8.25698e-05
27 *30:22 *45:10 8.27285e-05
28 *30:22 *45:38 0.000506405
29 *30:22 *78:14 8.48189e-05
30 *30:22 *186:32 0.00034107
31 *30:22 *186:44 6.46157e-05
32 *30:32 *747:B1 4.08664e-05
33 *30:32 *89:31 0.000120909
34 *30:48 *747:B1 9.58714e-05
35 *30:48 *830:A2 0.000128253
36 *30:48 *48:16 0.000160182
37 *30:48 *82:14 0.000363345
38 *30:48 *89:31 9.41704e-05
39 *30:48 *103:28 0.000213668
40 *30:48 *201:14 9.43963e-05
41 *30:74 *709:A1 0.00018625
42 *30:74 *38:16 0.000114166
43 *30:74 *62:63 1.50638e-05
44 *30:74 *101:14 0.00053745
45 *30:74 *121:35 0.000645684
46 *30:74 *124:53 2.26497e-05
47 *30:74 *130:30 0.0001134
48 *30:74 *130:37 4.51815e-05
49 *30:74 *139:49 6.33387e-05
50 *30:74 *149:35 6.50228e-05
51 *30:74 *150:20 0.000238146
52 *30:74 *159:48 0.00013008
53 *30:76 *38:24 0.000505443
54 *30:76 *38:39 1.05441e-05
55 *30:76 *150:20 0.000622457
56 *30:76 *158:42 0.00011804
57 *30:76 *201:35 5.79413e-06
58 *30:89 *38:39 0.000588614
59 *30:89 *103:59 2.18286e-05
60 *30:89 *120:81 0.000578726
61 *30:89 *145:20 0
62 *30:89 *147:63 0.000161542
63 *30:89 *201:35 4.08002e-05
64 *30:89 *213:69 0.00018536
*RES
1 *749:X *30:12 47.3629 
2 *30:12 *30:14 14.935 
3 *30:14 *30:22 43.2571 
4 *30:22 *30:32 17.7136 
5 *30:32 *30:48 48.2907 
6 *30:48 *830:A1 23 
7 *30:32 *764:A1 23 
8 *30:14 *30:74 46.382 
9 *30:74 *30:76 9.47679 
10 *30:76 *838:A1 38 
11 *30:76 *30:89 30.9914 
12 *30:89 *829:A1 23 
*END

*D_NET *31 0.0203683
*CONN
*I *754:B I *D sky130_fd_sc_hd__nor3_2
*I *752:A1 I *D sky130_fd_sc_hd__o21a_2
*I *750:X O *D sky130_fd_sc_hd__and3_1
*CAP
1 *754:B 2.54329e-06
2 *752:A1 0
3 *750:X 0.000431377
4 *31:54 0.000445208
5 *31:44 0.00132749
6 *31:32 0.00271206
7 *31:20 0.00327096
8 *31:8 0.00187511
9 *754:B *158:30 3.51812e-06
10 *31:8 *135:8 0
11 *31:8 *180:46 5.80801e-05
12 *31:8 *220:143 1.95448e-05
13 *31:20 *57:16 0.00198176
14 *31:20 *96:34 0.000329957
15 *31:20 *106:20 8.65771e-06
16 *31:20 *106:38 0.000425073
17 *31:20 *125:18 0.000167854
18 *31:20 *135:10 0.000135196
19 *31:20 *151:38 0
20 *31:20 *164:14 0
21 *31:20 *208:10 0.00126382
22 *31:20 *213:57 0.000103622
23 *31:32 *35:12 4.76373e-05
24 *31:32 *86:10 1.56542e-05
25 *31:32 *124:84 1.63476e-05
26 *31:32 *130:66 7.87975e-05
27 *31:32 *141:142 2.91648e-06
28 *31:32 *143:14 7.18788e-05
29 *31:32 *147:26 2.12164e-05
30 *31:32 *149:35 0
31 *31:32 *156:47 0.000402641
32 *31:32 *158:30 9.69485e-05
33 *31:32 *164:14 0
34 *31:32 *180:36 4.93791e-05
35 *31:32 *184:45 7.00325e-05
36 *31:32 *185:37 4.93791e-05
37 *31:32 *185:51 0.00117735
38 *31:32 *197:89 8.73121e-05
39 *31:32 *201:46 9.41704e-05
40 *31:32 *206:22 0
41 *31:32 *217:55 6.80139e-05
42 *31:32 *217:61 3.61007e-05
43 *31:44 *32:29 0.000291446
44 *31:44 *86:10 0.000318153
45 *31:44 *124:90 8.2256e-05
46 *31:44 *124:104 2.33476e-05
47 *31:44 *127:173 5.62329e-05
48 *31:44 *132:51 9.80554e-05
49 *31:44 *133:20 0
50 *31:44 *133:80 0
51 *31:44 *133:90 0
52 *31:44 *147:51 9.28078e-06
53 *31:44 *158:30 0
54 *31:44 *183:41 0.000949574
55 *31:44 *201:46 3.63419e-05
56 *31:44 *213:69 0
57 *31:54 *32:21 0
58 *31:54 *38:39 0.000398075
59 *31:54 *103:59 1.29388e-05
60 *31:54 *104:10 0.000137033
61 *31:54 *131:8 5.79559e-05
62 *31:54 *145:117 9.63255e-05
63 *31:54 *147:63 1.09886e-05
64 *31:54 *154:6 0.000390257
65 *31:54 *203:12 0.00022999
66 *31:54 *220:37 0.000221992
67 out[2] *31:20 0
68 out[2] *31:32 4.43812e-07
*RES
1 *750:X *31:8 44.3386 
2 *31:8 *31:20 48.4723 
3 *31:20 *31:32 30.5435 
4 *31:32 *31:44 47.6589 
5 *31:44 *31:54 42.1282 
6 *31:54 *752:A1 23 
7 *31:32 *754:B 23.1554 
*END

*D_NET *32 0.00634558
*CONN
*I *754:C I *D sky130_fd_sc_hd__nor3_2
*I *752:A2 I *D sky130_fd_sc_hd__o21a_2
*I *751:Y O *D sky130_fd_sc_hd__a21oi_1
*CAP
1 *754:C 0
2 *752:A2 0.000232822
3 *751:Y 0.000116558
4 *32:29 9.63734e-05
5 *32:21 0.00122851
6 *32:6 0.00148152
7 *752:A2 *713:A 7.87147e-05
8 *752:A2 *154:6 0.000574087
9 *752:A2 *155:8 0.000485221
10 *752:A2 *220:37 1.10658e-05
11 *32:6 *713:A 5.46873e-05
12 *32:6 *196:83 0.000102389
13 *32:6 *220:43 0.000100069
14 *32:21 *103:59 0
15 *32:21 *156:25 7.57281e-06
16 *32:21 *183:41 0.00111614
17 *32:21 *200:74 0
18 *32:21 *201:46 0.000137361
19 *32:29 *133:90 0
20 *32:29 *201:46 0.000231039
21 *31:44 *32:29 0.000291446
22 *31:54 *32:21 0
*RES
1 *751:Y *32:6 25.5271 
2 *32:6 *752:A2 31.2443 
3 *32:6 *32:21 48.27 
4 *32:21 *32:29 33.3764 
5 *32:29 *754:C 23 
*END

*D_NET *33 0.0296621
*CONN
*I *815:A1 I *D sky130_fd_sc_hd__o211a_1
*I *757:A1 I *D sky130_fd_sc_hd__o21ai_4
*I *821:B I *D sky130_fd_sc_hd__or3_1
*I *755:B1 I *D sky130_fd_sc_hd__a211oi_4
*I *752:X O *D sky130_fd_sc_hd__o21a_2
*CAP
1 *815:A1 0
2 *757:A1 5.69759e-05
3 *821:B 4.71097e-05
4 *755:B1 0.00138364
5 *752:X 0.000243876
6 *33:110 0.000339356
7 *33:70 0.00214413
8 *33:36 0.00470011
9 *33:28 0.00205743
10 *33:16 0.00332169
11 *33:8 0.00244521
12 *755:B1 *678:A 0.000356542
13 *755:B1 *35:30 0
14 *755:B1 *37:10 0.000461544
15 *755:B1 *39:54 5.79832e-05
16 *755:B1 *65:12 0.000343546
17 *755:B1 *69:10 0.000218829
18 *755:B1 *120:10 4.52159e-05
19 *755:B1 *123:16 2.33476e-05
20 *755:B1 *123:29 0.000405871
21 *755:B1 *124:43 0.0002839
22 *755:B1 *133:123 0.000201799
23 *755:B1 *171:84 7.51848e-07
24 *755:B1 *181:10 5.09087e-05
25 *755:B1 *181:16 0.000373747
26 *755:B1 *198:43 0
27 *755:B1 *214:10 7.03005e-05
28 *757:A1 *89:6 6.17437e-06
29 *757:A1 *144:107 9.41704e-05
30 *821:B *95:6 5.3304e-05
31 *33:8 *145:20 0.000465482
32 *33:8 *155:10 0.000466494
33 *33:16 *103:59 0.000765248
34 *33:16 *129:146 0.000458022
35 *33:16 *148:22 2.77638e-05
36 *33:16 *156:25 0.000166289
37 *33:16 *166:45 4.93791e-05
38 *33:28 *36:39 1.74874e-06
39 *33:28 *36:66 1.05364e-05
40 *33:28 *42:28 2.25255e-05
41 *33:28 *137:74 0.000136102
42 *33:28 *170:22 4.30894e-05
43 *33:36 *37:27 1.58044e-05
44 *33:36 *39:54 0.000455635
45 *33:36 *64:14 0.000964876
46 *33:36 *124:43 0.000240913
47 *33:36 *137:28 1.00288e-05
48 *33:36 *144:107 0.0005369
49 *33:36 *158:42 0.000734435
50 *33:36 *188:12 7.51848e-07
51 *33:70 *39:54 7.47278e-05
52 *33:70 *55:30 0.000348875
53 *33:70 *55:51 5.59171e-05
54 *33:70 *56:45 0.000162824
55 *33:70 *57:14 0.000140797
56 *33:70 *67:18 2.05503e-05
57 *33:70 *70:24 0.000703593
58 *33:70 *71:14 2.26497e-05
59 *33:70 *109:32 0.000678957
60 *33:70 *114:16 0
61 *33:70 *137:44 0.000123885
62 *33:70 *162:24 0.00044617
63 *33:70 *166:8 9.72282e-05
64 *33:70 *182:18 0.000580304
65 *33:70 *207:26 1.33116e-05
66 *33:70 *213:25 0
67 *33:110 *34:82 6.21781e-06
68 *33:110 *54:16 0.000223908
69 *33:110 *130:66 0.000129999
70 *33:110 *138:14 0.00013593
71 *33:110 *139:49 3.0176e-05
72 *33:110 *183:35 2.26406e-05