*SPEF "ieee 1481-1999"
*DESIGN "ztfc"
*DATE "11:54:30 Saturday May 24, 2025"
*VENDOR "The OpenROAD Project"
*PROGRAM "OpenROAD"
*VERSION "b16bda7e82721d10566ff7e2b68f1ff0be9f9e38"
*DESIGN_FLOW "NAME_SCOPE LOCAL" "PIN_CAP NONE"
*DIVIDER /
*DELIMITER :
*BUS_DELIMITER []
*T_UNIT 1 NS
*C_UNIT 1 PF
*R_UNIT 1 OHM
*L_UNIT 1 HENRY

*NAME_MAP
*3 net9
*4 clk
*5 rst
*6 seg_out[0]
*7 seg_out[1]
*8 seg_out[2]
*9 seg_out[3]
*10 seg_out[4]
*11 seg_out[5]
*12 seg_out[6]
*13 _000_
*14 _001_
*15 _002_
*16 _003_
*17 _004_
*18 _005_
*19 _006_
*20 _007_
*21 _008_
*22 _009_
*23 _010_
*24 _011_
*25 _012_
*26 _013_
*27 _014_
*28 _015_
*29 _016_
*30 _017_
*31 _018_
*32 _019_
*33 _020_
*34 _021_
*35 _022_
*36 _023_
*37 _024_
*38 _025_
*39 _026_
*40 _027_
*41 _028_
*42 _029_
*43 _030_
*44 _031_
*45 _032_
*46 _033_
*47 _034_
*48 _035_
*49 _036_
*50 _037_
*51 _038_
*52 _039_
*53 _040_
*54 _041_
*55 _042_
*56 _043_
*57 _044_
*58 _045_
*59 _046_
*60 _047_
*61 _048_
*62 _049_
*63 _050_
*64 _051_
*65 _052_
*66 _053_
*67 _054_
*68 _055_
*69 _056_
*70 _057_
*71 _058_
*72 _059_
*73 _060_
*74 _061_
*75 _062_
*76 _063_
*77 _064_
*78 _065_
*79 _066_
*80 _067_
*81 _068_
*82 _069_
*83 _070_
*84 _071_
*85 _072_
*86 _073_
*87 _074_
*88 _075_
*89 _076_
*90 _077_
*91 _078_
*92 _079_
*93 _080_
*94 _081_
*95 _082_
*96 _083_
*97 _084_
*98 _085_
*99 _086_
*100 _087_
*101 _088_
*102 _089_
*103 _090_
*104 _091_
*105 _092_
*106 _093_
*107 _094_
*108 _095_
*109 _096_
*110 _097_
*111 _098_
*112 _099_
*113 _100_
*114 _101_
*115 _102_
*116 _103_
*117 _104_
*118 _105_
*119 _106_
*120 _107_
*121 _108_
*122 _109_
*123 _110_
*124 _111_
*125 _112_
*126 _113_
*127 _114_
*128 _115_
*129 _116_
*130 _117_
*131 _118_
*132 _119_
*133 _120_
*134 _121_
*135 a\.count\[0\]
*136 a\.count\[1\]
*137 a\.count\[2\]
*138 a\.count\[3\]
*139 a\.one_second_counter\[0\]
*140 a\.one_second_counter\[10\]
*141 a\.one_second_counter\[11\]
*142 a\.one_second_counter\[12\]
*143 a\.one_second_counter\[13\]
*144 a\.one_second_counter\[14\]
*145 a\.one_second_counter\[15\]
*146 a\.one_second_counter\[16\]
*147 a\.one_second_counter\[17\]
*148 a\.one_second_counter\[18\]
*149 a\.one_second_counter\[19\]
*150 a\.one_second_counter\[1\]
*151 a\.one_second_counter\[20\]
*152 a\.one_second_counter\[21\]
*153 a\.one_second_counter\[22\]
*154 a\.one_second_counter\[23\]
*155 a\.one_second_counter\[24\]
*156 a\.one_second_counter\[25\]
*157 a\.one_second_counter\[26\]
*158 a\.one_second_counter\[2\]
*159 a\.one_second_counter\[3\]
*160 a\.one_second_counter\[4\]
*161 a\.one_second_counter\[5\]
*162 a\.one_second_counter\[6\]
*163 a\.one_second_counter\[7\]
*164 a\.one_second_counter\[8\]
*165 a\.one_second_counter\[9\]
*166 clknet_0_clk
*167 clknet_2_0__leaf_clk
*168 clknet_2_1__leaf_clk
*169 clknet_2_2__leaf_clk
*170 clknet_2_3__leaf_clk
*171 net1
*172 net2
*173 net3
*174 net4
*175 net5
*176 net6
*177 net7
*178 net8
*179 ANTENNA_1
*180 ANTENNA_10
*181 ANTENNA_11
*182 ANTENNA_12
*183 ANTENNA_13
*184 ANTENNA_14
*185 ANTENNA_15
*186 ANTENNA_16
*187 ANTENNA_17
*188 ANTENNA_18
*189 ANTENNA_19
*190 ANTENNA_2
*191 ANTENNA_20
*192 ANTENNA_21
*193 ANTENNA_22
*194 ANTENNA_23
*195 ANTENNA_24
*196 ANTENNA_25
*197 ANTENNA_26
*198 ANTENNA_27
*199 ANTENNA_28
*200 ANTENNA_29
*201 ANTENNA_3
*202 ANTENNA_30
*203 ANTENNA_31
*204 ANTENNA_32
*205 ANTENNA_33
*206 ANTENNA_34
*207 ANTENNA_35
*208 ANTENNA_36
*209 ANTENNA_37
*210 ANTENNA_4
*211 ANTENNA_5
*212 ANTENNA_6
*213 ANTENNA_7
*214 ANTENNA_8
*215 ANTENNA_9
*216 FILLER_0_0_109
*217 FILLER_0_0_113
*218 FILLER_0_0_125
*219 FILLER_0_0_137
*220 FILLER_0_0_141
*221 FILLER_0_0_15
*222 FILLER_0_0_153
*223 FILLER_0_0_165
*224 FILLER_0_0_169
*225 FILLER_0_0_181
*226 FILLER_0_0_193
*227 FILLER_0_0_197
*228 FILLER_0_0_209
*229 FILLER_0_0_221
*230 FILLER_0_0_225
*231 FILLER_0_0_237
*232 FILLER_0_0_249
*233 FILLER_0_0_253
*234 FILLER_0_0_265
*235 FILLER_0_0_27
*236 FILLER_0_0_277
*237 FILLER_0_0_281
*238 FILLER_0_0_29
*239 FILLER_0_0_293
*240 FILLER_0_0_3
*241 FILLER_0_0_305
*242 FILLER_0_0_309
*243 FILLER_0_0_321
*244 FILLER_0_0_333
*245 FILLER_0_0_337
*246 FILLER_0_0_349
*247 FILLER_0_0_361
*248 FILLER_0_0_365
*249 FILLER_0_0_377
*250 FILLER_0_0_389
*251 FILLER_0_0_393
*252 FILLER_0_0_405
*253 FILLER_0_0_41
*254 FILLER_0_0_53
*255 FILLER_0_0_57
*256 FILLER_0_0_69
*257 FILLER_0_0_81
*258 FILLER_0_0_85
*259 FILLER_0_0_97
*260 FILLER_0_10_109
*261 FILLER_0_10_121
*262 FILLER_0_10_133
*263 FILLER_0_10_139
*264 FILLER_0_10_141
*265 FILLER_0_10_153
*266 FILLER_0_10_165
*267 FILLER_0_10_177
*268 FILLER_0_10_189
*269 FILLER_0_10_195
*270 FILLER_0_10_197
*271 FILLER_0_10_209
*272 FILLER_0_10_221
*273 FILLER_0_10_233
*274 FILLER_0_10_245
*275 FILLER_0_10_251
*276 FILLER_0_10_260
*277 FILLER_0_10_264
*278 FILLER_0_10_276
*279 FILLER_0_10_281
*280 FILLER_0_10_286
*281 FILLER_0_10_29
*282 FILLER_0_10_298
*283 FILLER_0_10_3
*284 FILLER_0_10_306
*285 FILLER_0_10_309
*286 FILLER_0_10_330
*287 FILLER_0_10_334
*288 FILLER_0_10_346
*289 FILLER_0_10_358
*290 FILLER_0_10_365
*291 FILLER_0_10_377
*292 FILLER_0_10_389
*293 FILLER_0_10_397
*294 FILLER_0_10_402
*295 FILLER_0_10_41
*296 FILLER_0_10_53
*297 FILLER_0_10_65
*298 FILLER_0_10_77
*299 FILLER_0_10_83
*300 FILLER_0_10_85
*301 FILLER_0_10_9
*302 FILLER_0_10_97
*303 FILLER_0_11_101
*304 FILLER_0_11_108
*305 FILLER_0_11_11
*306 FILLER_0_11_113
*307 FILLER_0_11_125
*308 FILLER_0_11_137
*309 FILLER_0_11_142
*310 FILLER_0_11_155
*311 FILLER_0_11_167
*312 FILLER_0_11_169
*313 FILLER_0_11_181
*314 FILLER_0_11_193
*315 FILLER_0_11_205
*316 FILLER_0_11_217
*317 FILLER_0_11_223
*318 FILLER_0_11_225
*319 FILLER_0_11_23
*320 FILLER_0_11_237
*321 FILLER_0_11_249
*322 FILLER_0_11_261
*323 FILLER_0_11_273
*324 FILLER_0_11_279
*325 FILLER_0_11_281
*326 FILLER_0_11_293
*327 FILLER_0_11_3
*328 FILLER_0_11_305
*329 FILLER_0_11_317
*330 FILLER_0_11_329
*331 FILLER_0_11_335
*332 FILLER_0_11_337
*333 FILLER_0_11_349
*334 FILLER_0_11_35
*335 FILLER_0_11_361
*336 FILLER_0_11_373
*337 FILLER_0_11_385
*338 FILLER_0_11_391
*339 FILLER_0_11_393
*340 FILLER_0_11_405
*341 FILLER_0_11_43
*342 FILLER_0_11_57
*343 FILLER_0_11_69
*344 FILLER_0_11_81
*345 FILLER_0_11_93
*346 FILLER_0_12_109
*347 FILLER_0_12_119
*348 FILLER_0_12_131
*349 FILLER_0_12_139
*350 FILLER_0_12_141
*351 FILLER_0_12_15
*352 FILLER_0_12_153
*353 FILLER_0_12_165
*354 FILLER_0_12_177
*355 FILLER_0_12_189
*356 FILLER_0_12_195
*357 FILLER_0_12_197
*358 FILLER_0_12_209
*359 FILLER_0_12_221
*360 FILLER_0_12_233
*361 FILLER_0_12_245
*362 FILLER_0_12_251
*363 FILLER_0_12_253
*364 FILLER_0_12_265
*365 FILLER_0_12_27
*366 FILLER_0_12_277
*367 FILLER_0_12_289
*368 FILLER_0_12_29
*369 FILLER_0_12_3
*370 FILLER_0_12_301
*371 FILLER_0_12_307
*372 FILLER_0_12_309
*373 FILLER_0_12_321
*374 FILLER_0_12_333
*375 FILLER_0_12_345
*376 FILLER_0_12_357
*377 FILLER_0_12_363
*378 FILLER_0_12_365
*379 FILLER_0_12_377
*380 FILLER_0_12_389
*381 FILLER_0_12_401
*382 FILLER_0_12_41
*383 FILLER_0_12_49
*384 FILLER_0_12_56
*385 FILLER_0_12_68
*386 FILLER_0_12_80
*387 FILLER_0_12_85
*388 FILLER_0_12_97
*389 FILLER_0_13_105
*390 FILLER_0_13_111
*391 FILLER_0_13_113
*392 FILLER_0_13_125
*393 FILLER_0_13_134
*394 FILLER_0_13_146
*395 FILLER_0_13_15
*396 FILLER_0_13_158
*397 FILLER_0_13_166
*398 FILLER_0_13_169
*399 FILLER_0_13_181
*400 FILLER_0_13_193
*401 FILLER_0_13_205
*402 FILLER_0_13_217
*403 FILLER_0_13_223
*404 FILLER_0_13_244
*405 FILLER_0_13_248
*406 FILLER_0_13_260
*407 FILLER_0_13_27
*408 FILLER_0_13_272
*409 FILLER_0_13_281
*410 FILLER_0_13_293
*411 FILLER_0_13_3
*412 FILLER_0_13_305
*413 FILLER_0_13_317
*414 FILLER_0_13_329
*415 FILLER_0_13_335
*416 FILLER_0_13_337
*417 FILLER_0_13_349
*418 FILLER_0_13_361
*419 FILLER_0_13_373
*420 FILLER_0_13_385
*421 FILLER_0_13_39
*422 FILLER_0_13_391
*423 FILLER_0_13_393
*424 FILLER_0_13_405
*425 FILLER_0_13_51
*426 FILLER_0_13_55
*427 FILLER_0_13_57
*428 FILLER_0_13_69
*429 FILLER_0_13_81
*430 FILLER_0_13_93
*431 FILLER_0_14_109
*432 FILLER_0_14_121
*433 FILLER_0_14_141
*434 FILLER_0_14_15
*435 FILLER_0_14_153
*436 FILLER_0_14_165
*437 FILLER_0_14_177
*438 FILLER_0_14_189
*439 FILLER_0_14_195
*440 FILLER_0_14_216
*441 FILLER_0_14_220
*442 FILLER_0_14_232
*443 FILLER_0_14_244
*444 FILLER_0_14_253
*445 FILLER_0_14_265
*446 FILLER_0_14_27
*447 FILLER_0_14_277
*448 FILLER_0_14_289
*449 FILLER_0_14_29
*450 FILLER_0_14_3
*451 FILLER_0_14_301
*452 FILLER_0_14_307
*453 FILLER_0_14_309
*454 FILLER_0_14_321
*455 FILLER_0_14_333
*456 FILLER_0_14_345
*457 FILLER_0_14_357
*458 FILLER_0_14_363
*459 FILLER_0_14_365
*460 FILLER_0_14_377
*461 FILLER_0_14_389
*462 FILLER_0_14_401
*463 FILLER_0_14_41
*464 FILLER_0_14_53
*465 FILLER_0_14_65
*466 FILLER_0_14_81
*467 FILLER_0_14_85
*468 FILLER_0_14_97
*469 FILLER_0_15_105
*470 FILLER_0_15_111
*471 FILLER_0_15_113
*472 FILLER_0_15_125
*473 FILLER_0_15_137
*474 FILLER_0_15_149
*475 FILLER_0_15_15
*476 FILLER_0_15_161
*477 FILLER_0_15_167
*478 FILLER_0_15_169
*479 FILLER_0_15_181
*480 FILLER_0_15_193
*481 FILLER_0_15_205
*482 FILLER_0_15_217
*483 FILLER_0_15_223
*484 FILLER_0_15_225
*485 FILLER_0_15_237
*486 FILLER_0_15_249
*487 FILLER_0_15_261
*488 FILLER_0_15_27
*489 FILLER_0_15_273
*490 FILLER_0_15_279
*491 FILLER_0_15_281
*492 FILLER_0_15_293
*493 FILLER_0_15_3
*494 FILLER_0_15_305
*495 FILLER_0_15_317
*496 FILLER_0_15_329
*497 FILLER_0_15_335
*498 FILLER_0_15_337
*499 FILLER_0_15_349
*500 FILLER_0_15_371
*501 FILLER_0_15_383
*502 FILLER_0_15_39
*503 FILLER_0_15_391
*504 FILLER_0_15_393
*505 FILLER_0_15_405
*506 FILLER_0_15_51
*507 FILLER_0_15_55
*508 FILLER_0_15_57
*509 FILLER_0_15_69
*510 FILLER_0_15_81
*511 FILLER_0_15_93
*512 FILLER_0_16_109
*513 FILLER_0_16_121
*514 FILLER_0_16_133
*515 FILLER_0_16_139
*516 FILLER_0_16_141
*517 FILLER_0_16_15
*518 FILLER_0_16_153
*519 FILLER_0_16_165
*520 FILLER_0_16_177
*521 FILLER_0_16_189
*522 FILLER_0_16_195
*523 FILLER_0_16_197
*524 FILLER_0_16_209
*525 FILLER_0_16_221
*526 FILLER_0_16_233
*527 FILLER_0_16_245
*528 FILLER_0_16_251
*529 FILLER_0_16_253
*530 FILLER_0_16_265
*531 FILLER_0_16_27
*532 FILLER_0_16_277
*533 FILLER_0_16_289
*534 FILLER_0_16_29
*535 FILLER_0_16_3
*536 FILLER_0_16_301
*537 FILLER_0_16_307
*538 FILLER_0_16_309
*539 FILLER_0_16_321
*540 FILLER_0_16_333
*541 FILLER_0_16_345
*542 FILLER_0_16_357
*543 FILLER_0_16_363
*544 FILLER_0_16_365
*545 FILLER_0_16_377
*546 FILLER_0_16_381
*547 FILLER_0_16_393
*548 FILLER_0_16_405
*549 FILLER_0_16_41
*550 FILLER_0_16_53
*551 FILLER_0_16_65
*552 FILLER_0_16_77
*553 FILLER_0_16_83
*554 FILLER_0_16_85
*555 FILLER_0_16_97
*556 FILLER_0_17_105
*557 FILLER_0_17_111
*558 FILLER_0_17_113
*559 FILLER_0_17_125
*560 FILLER_0_17_137
*561 FILLER_0_17_149
*562 FILLER_0_17_15
*563 FILLER_0_17_161
*564 FILLER_0_17_167
*565 FILLER_0_17_169
*566 FILLER_0_17_181
*567 FILLER_0_17_193
*568 FILLER_0_17_205
*569 FILLER_0_17_217
*570 FILLER_0_17_223
*571 FILLER_0_17_225
*572 FILLER_0_17_23
*573 FILLER_0_17_233
*574 FILLER_0_17_240
*575 FILLER_0_17_252
*576 FILLER_0_17_264
*577 FILLER_0_17_27
*578 FILLER_0_17_276
*579 FILLER_0_17_281
*580 FILLER_0_17_287
*581 FILLER_0_17_3
*582 FILLER_0_17_319
*583 FILLER_0_17_331
*584 FILLER_0_17_335
*585 FILLER_0_17_337
*586 FILLER_0_17_349
*587 FILLER_0_17_359
*588 FILLER_0_17_367
*589 FILLER_0_17_371
*590 FILLER_0_17_383
*591 FILLER_0_17_39
*592 FILLER_0_17_391
*593 FILLER_0_17_393
*594 FILLER_0_17_405
*595 FILLER_0_17_51
*596 FILLER_0_17_55
*597 FILLER_0_17_57
*598 FILLER_0_17_69
*599 FILLER_0_17_81
*600 FILLER_0_17_93
*601 FILLER_0_18_109
*602 FILLER_0_18_121
*603 FILLER_0_18_133
*604 FILLER_0_18_139
*605 FILLER_0_18_141
*606 FILLER_0_18_15
*607 FILLER_0_18_153
*608 FILLER_0_18_165
*609 FILLER_0_18_177
*610 FILLER_0_18_189
*611 FILLER_0_18_195
*612 FILLER_0_18_197
*613 FILLER_0_18_209
*614 FILLER_0_18_221
*615 FILLER_0_18_233
*616 FILLER_0_18_245
*617 FILLER_0_18_251
*618 FILLER_0_18_253
*619 FILLER_0_18_265
*620 FILLER_0_18_27
*621 FILLER_0_18_279
*622 FILLER_0_18_29
*623 FILLER_0_18_298
*624 FILLER_0_18_3
*625 FILLER_0_18_306
*626 FILLER_0_18_309
*627 FILLER_0_18_321
*628 FILLER_0_18_333
*629 FILLER_0_18_345
*630 FILLER_0_18_357
*631 FILLER_0_18_363
*632 FILLER_0_18_365
*633 FILLER_0_18_377
*634 FILLER_0_18_389
*635 FILLER_0_18_401
*636 FILLER_0_18_41
*637 FILLER_0_18_53
*638 FILLER_0_18_65
*639 FILLER_0_18_77
*640 FILLER_0_18_83
*641 FILLER_0_18_85
*642 FILLER_0_18_97
*643 FILLER_0_19_105
*644 FILLER_0_19_111
*645 FILLER_0_19_113
*646 FILLER_0_19_125
*647 FILLER_0_19_137
*648 FILLER_0_19_149
*649 FILLER_0_19_15
*650 FILLER_0_19_161
*651 FILLER_0_19_167
*652 FILLER_0_19_169
*653 FILLER_0_19_181
*654 FILLER_0_19_193
*655 FILLER_0_19_205
*656 FILLER_0_19_217
*657 FILLER_0_19_223
*658 FILLER_0_19_225
*659 FILLER_0_19_237
*660 FILLER_0_19_249
*661 FILLER_0_19_261
*662 FILLER_0_19_27
*663 FILLER_0_19_273
*664 FILLER_0_19_279
*665 FILLER_0_19_281
*666 FILLER_0_19_295
*667 FILLER_0_19_3
*668 FILLER_0_19_307
*669 FILLER_0_19_319
*670 FILLER_0_19_331
*671 FILLER_0_19_335
*672 FILLER_0_19_337
*673 FILLER_0_19_349
*674 FILLER_0_19_361
*675 FILLER_0_19_373
*676 FILLER_0_19_385
*677 FILLER_0_19_39
*678 FILLER_0_19_391
*679 FILLER_0_19_393
*680 FILLER_0_19_401
*681 FILLER_0_19_51
*682 FILLER_0_19_55
*683 FILLER_0_19_57
*684 FILLER_0_19_69
*685 FILLER_0_19_81
*686 FILLER_0_19_93
*687 FILLER_0_1_110
*688 FILLER_0_1_113
*689 FILLER_0_1_125
*690 FILLER_0_1_137
*691 FILLER_0_1_149
*692 FILLER_0_1_15
*693 FILLER_0_1_161
*694 FILLER_0_1_167
*695 FILLER_0_1_169
*696 FILLER_0_1_181
*697 FILLER_0_1_192
*698 FILLER_0_1_204
*699 FILLER_0_1_21
*700 FILLER_0_1_216
*701 FILLER_0_1_225
*702 FILLER_0_1_237
*703 FILLER_0_1_249
*704 FILLER_0_1_261
*705 FILLER_0_1_273
*706 FILLER_0_1_279
*707 FILLER_0_1_281
*708 FILLER_0_1_293
*709 FILLER_0_1_3
*710 FILLER_0_1_305
*711 FILLER_0_1_317
*712 FILLER_0_1_32
*713 FILLER_0_1_329
*714 FILLER_0_1_335
*715 FILLER_0_1_337
*716 FILLER_0_1_349
*717 FILLER_0_1_36
*718 FILLER_0_1_361
*719 FILLER_0_1_373
*720 FILLER_0_1_385
*721 FILLER_0_1_391
*722 FILLER_0_1_393
*723 FILLER_0_1_401
*724 FILLER_0_1_48
*725 FILLER_0_1_57
*726 FILLER_0_1_69
*727 FILLER_0_1_86
*728 FILLER_0_1_98
*729 FILLER_0_20_109
*730 FILLER_0_20_121
*731 FILLER_0_20_133
*732 FILLER_0_20_139
*733 FILLER_0_20_141
*734 FILLER_0_20_15
*735 FILLER_0_20_153
*736 FILLER_0_20_165
*737 FILLER_0_20_177
*738 FILLER_0_20_189
*739 FILLER_0_20_195
*740 FILLER_0_20_197
*741 FILLER_0_20_209
*742 FILLER_0_20_221
*743 FILLER_0_20_233
*744 FILLER_0_20_245
*745 FILLER_0_20_251
*746 FILLER_0_20_253
*747 FILLER_0_20_265
*748 FILLER_0_20_27
*749 FILLER_0_20_277
*750 FILLER_0_20_289
*751 FILLER_0_20_29
*752 FILLER_0_20_3
*753 FILLER_0_20_301
*754 FILLER_0_20_307
*755 FILLER_0_20_309
*756 FILLER_0_20_321
*757 FILLER_0_20_333
*758 FILLER_0_20_345
*759 FILLER_0_20_357
*760 FILLER_0_20_363
*761 FILLER_0_20_365
*762 FILLER_0_20_377
*763 FILLER_0_20_389
*764 FILLER_0_20_404
*765 FILLER_0_20_41
*766 FILLER_0_20_53
*767 FILLER_0_20_65
*768 FILLER_0_20_77
*769 FILLER_0_20_83
*770 FILLER_0_20_85
*771 FILLER_0_20_97
*772 FILLER_0_21_105
*773 FILLER_0_21_111
*774 FILLER_0_21_113
*775 FILLER_0_21_125
*776 FILLER_0_21_130
*777 FILLER_0_21_137
*778 FILLER_0_21_149
*779 FILLER_0_21_15
*780 FILLER_0_21_161
*781 FILLER_0_21_167
*782 FILLER_0_21_169
*783 FILLER_0_21_181
*784 FILLER_0_21_193
*785 FILLER_0_21_205
*786 FILLER_0_21_217
*787 FILLER_0_21_223
*788 FILLER_0_21_225
*789 FILLER_0_21_237
*790 FILLER_0_21_249
*791 FILLER_0_21_261
*792 FILLER_0_21_27
*793 FILLER_0_21_273
*794 FILLER_0_21_279
*795 FILLER_0_21_281
*796 FILLER_0_21_293
*797 FILLER_0_21_3
*798 FILLER_0_21_305
*799 FILLER_0_21_317
*800 FILLER_0_21_329
*801 FILLER_0_21_335
*802 FILLER_0_21_337
*803 FILLER_0_21_349
*804 FILLER_0_21_361
*805 FILLER_0_21_373
*806 FILLER_0_21_385
*807 FILLER_0_21_39
*808 FILLER_0_21_391
*809 FILLER_0_21_393
*810 FILLER_0_21_405
*811 FILLER_0_21_51
*812 FILLER_0_21_55
*813 FILLER_0_21_57
*814 FILLER_0_21_69
*815 FILLER_0_21_81
*816 FILLER_0_21_93
*817 FILLER_0_22_109
*818 FILLER_0_22_121
*819 FILLER_0_22_133
*820 FILLER_0_22_139
*821 FILLER_0_22_141
*822 FILLER_0_22_15
*823 FILLER_0_22_153
*824 FILLER_0_22_165
*825 FILLER_0_22_177
*826 FILLER_0_22_189
*827 FILLER_0_22_195
*828 FILLER_0_22_197
*829 FILLER_0_22_209
*830 FILLER_0_22_221
*831 FILLER_0_22_233
*832 FILLER_0_22_245
*833 FILLER_0_22_251
*834 FILLER_0_22_253
*835 FILLER_0_22_265
*836 FILLER_0_22_27
*837 FILLER_0_22_275
*838 FILLER_0_22_287
*839 FILLER_0_22_29
*840 FILLER_0_22_299
*841 FILLER_0_22_3
*842 FILLER_0_22_307
*843 FILLER_0_22_309
*844 FILLER_0_22_321
*845 FILLER_0_22_332
*846 FILLER_0_22_344
*847 FILLER_0_22_356
*848 FILLER_0_22_365
*849 FILLER_0_22_377
*850 FILLER_0_22_389
*851 FILLER_0_22_401
*852 FILLER_0_22_41
*853 FILLER_0_22_53
*854 FILLER_0_22_65
*855 FILLER_0_22_77
*856 FILLER_0_22_83
*857 FILLER_0_22_85
*858 FILLER_0_22_97
*859 FILLER_0_23_105
*860 FILLER_0_23_111
*861 FILLER_0_23_113
*862 FILLER_0_23_125
*863 FILLER_0_23_137
*864 FILLER_0_23_149
*865 FILLER_0_23_15
*866 FILLER_0_23_161
*867 FILLER_0_23_167
*868 FILLER_0_23_169
*869 FILLER_0_23_181
*870 FILLER_0_23_193
*871 FILLER_0_23_205
*872 FILLER_0_23_217
*873 FILLER_0_23_223
*874 FILLER_0_23_225
*875 FILLER_0_23_237
*876 FILLER_0_23_249
*877 FILLER_0_23_261
*878 FILLER_0_23_27
*879 FILLER_0_23_281
*880 FILLER_0_23_293
*881 FILLER_0_23_3
*882 FILLER_0_23_305
*883 FILLER_0_23_317
*884 FILLER_0_23_329
*885 FILLER_0_23_335
*886 FILLER_0_23_337
*887 FILLER_0_23_349
*888 FILLER_0_23_361
*889 FILLER_0_23_373
*890 FILLER_0_23_385
*891 FILLER_0_23_39
*892 FILLER_0_23_391
*893 FILLER_0_23_393
*894 FILLER_0_23_405
*895 FILLER_0_23_48
*896 FILLER_0_23_57
*897 FILLER_0_23_69
*898 FILLER_0_23_81
*899 FILLER_0_23_93
*900 FILLER_0_24_109
*901 FILLER_0_24_121
*902 FILLER_0_24_134
*903 FILLER_0_24_141
*904 FILLER_0_24_15
*905 FILLER_0_24_153
*906 FILLER_0_24_165
*907 FILLER_0_24_177
*908 FILLER_0_24_189
*909 FILLER_0_24_195
*910 FILLER_0_24_197
*911 FILLER_0_24_209
*912 FILLER_0_24_221
*913 FILLER_0_24_233
*914 FILLER_0_24_245
*915 FILLER_0_24_251
*916 FILLER_0_24_253
*917 FILLER_0_24_265
*918 FILLER_0_24_27
*919 FILLER_0_24_277
*920 FILLER_0_24_289
*921 FILLER_0_24_29
*922 FILLER_0_24_3
*923 FILLER_0_24_301
*924 FILLER_0_24_307
*925 FILLER_0_24_309
*926 FILLER_0_24_321
*927 FILLER_0_24_33
*928 FILLER_0_24_333
*929 FILLER_0_24_345
*930 FILLER_0_24_357
*931 FILLER_0_24_363
*932 FILLER_0_24_365
*933 FILLER_0_24_377
*934 FILLER_0_24_389
*935 FILLER_0_24_39
*936 FILLER_0_24_401
*937 FILLER_0_24_51
*938 FILLER_0_24_63
*939 FILLER_0_24_75
*940 FILLER_0_24_83
*941 FILLER_0_24_85
*942 FILLER_0_24_97
*943 FILLER_0_25_105
*944 FILLER_0_25_111
*945 FILLER_0_25_113
*946 FILLER_0_25_125
*947 FILLER_0_25_137
*948 FILLER_0_25_149
*949 FILLER_0_25_15
*950 FILLER_0_25_161
*951 FILLER_0_25_167
*952 FILLER_0_25_169
*953 FILLER_0_25_181
*954 FILLER_0_25_193
*955 FILLER_0_25_205
*956 FILLER_0_25_217
*957 FILLER_0_25_223
*958 FILLER_0_25_225
*959 FILLER_0_25_237
*960 FILLER_0_25_249
*961 FILLER_0_25_261
*962 FILLER_0_25_27
*963 FILLER_0_25_273
*964 FILLER_0_25_279
*965 FILLER_0_25_281
*966 FILLER_0_25_293
*967 FILLER_0_25_3
*968 FILLER_0_25_305
*969 FILLER_0_25_317
*970 FILLER_0_25_329
*971 FILLER_0_25_335
*972 FILLER_0_25_337
*973 FILLER_0_25_349
*974 FILLER_0_25_361
*975 FILLER_0_25_373
*976 FILLER_0_25_385
*977 FILLER_0_25_39
*978 FILLER_0_25_391
*979 FILLER_0_25_393
*980 FILLER_0_25_405
*981 FILLER_0_25_51
*982 FILLER_0_25_55
*983 FILLER_0_25_57
*984 FILLER_0_25_69
*985 FILLER_0_25_81
*986 FILLER_0_25_93
*987 FILLER_0_26_109
*988 FILLER_0_26_121
*989 FILLER_0_26_133
*990 FILLER_0_26_139
*991 FILLER_0_26_141
*992 FILLER_0_26_15
*993 FILLER_0_26_153
*994 FILLER_0_26_165
*995 FILLER_0_26_177
*996 FILLER_0_26_189
*997 FILLER_0_26_195
*998 FILLER_0_26_197
*999 FILLER_0_26_209
*1000 FILLER_0_26_221
*1001 FILLER_0_26_233
*1002 FILLER_0_26_245
*1003 FILLER_0_26_251
*1004 FILLER_0_26_253
*1005 FILLER_0_26_265
*1006 FILLER_0_26_27
*1007 FILLER_0_26_277
*1008 FILLER_0_26_289
*1009 FILLER_0_26_29
*1010 FILLER_0_26_3
*1011 FILLER_0_26_301
*1012 FILLER_0_26_307
*1013 FILLER_0_26_309
*1014 FILLER_0_26_321
*1015 FILLER_0_26_333
*1016 FILLER_0_26_345
*1017 FILLER_0_26_357
*1018 FILLER_0_26_363
*1019 FILLER_0_26_365
*1020 FILLER_0_26_377
*1021 FILLER_0_26_389
*1022 FILLER_0_26_395
*1023 FILLER_0_26_403
*1024 FILLER_0_26_41
*1025 FILLER_0_26_53
*1026 FILLER_0_26_65
*1027 FILLER_0_26_77
*1028 FILLER_0_26_83
*1029 FILLER_0_26_85
*1030 FILLER_0_26_97
*1031 FILLER_0_27_108
*1032 FILLER_0_27_113
*1033 FILLER_0_27_125
*1034 FILLER_0_27_137
*1035 FILLER_0_27_149
*1036 FILLER_0_27_15
*1037 FILLER_0_27_161
*1038 FILLER_0_27_167
*1039 FILLER_0_27_169
*1040 FILLER_0_27_181
*1041 FILLER_0_27_193
*1042 FILLER_0_27_205
*1043 FILLER_0_27_217
*1044 FILLER_0_27_223
*1045 FILLER_0_27_225
*1046 FILLER_0_27_237
*1047 FILLER_0_27_249
*1048 FILLER_0_27_261
*1049 FILLER_0_27_27
*1050 FILLER_0_27_273
*1051 FILLER_0_27_279
*1052 FILLER_0_27_281
*1053 FILLER_0_27_293
*1054 FILLER_0_27_3
*1055 FILLER_0_27_305
*1056 FILLER_0_27_317
*1057 FILLER_0_27_325
*1058 FILLER_0_27_333
*1059 FILLER_0_27_337
*1060 FILLER_0_27_349
*1061 FILLER_0_27_361
*1062 FILLER_0_27_373
*1063 FILLER_0_27_385
*1064 FILLER_0_27_39
*1065 FILLER_0_27_391
*1066 FILLER_0_27_393
*1067 FILLER_0_27_405
*1068 FILLER_0_27_51
*1069 FILLER_0_27_55
*1070 FILLER_0_27_57
*1071 FILLER_0_27_69
*1072 FILLER_0_27_81
*1073 FILLER_0_27_85
*1074 FILLER_0_27_88
*1075 FILLER_0_27_96
*1076 FILLER_0_28_109
*1077 FILLER_0_28_121
*1078 FILLER_0_28_133
*1079 FILLER_0_28_139
*1080 FILLER_0_28_141
*1081 FILLER_0_28_15
*1082 FILLER_0_28_153
*1083 FILLER_0_28_165
*1084 FILLER_0_28_177
*1085 FILLER_0_28_189
*1086 FILLER_0_28_195
*1087 FILLER_0_28_197
*1088 FILLER_0_28_209
*1089 FILLER_0_28_221
*1090 FILLER_0_28_233
*1091 FILLER_0_28_245
*1092 FILLER_0_28_251
*1093 FILLER_0_28_253
*1094 FILLER_0_28_265
*1095 FILLER_0_28_27
*1096 FILLER_0_28_277
*1097 FILLER_0_28_289
*1098 FILLER_0_28_297
*1099 FILLER_0_28_3
*1100 FILLER_0_28_304
*1101 FILLER_0_28_309
*1102 FILLER_0_28_321
*1103 FILLER_0_28_333
*1104 FILLER_0_28_345
*1105 FILLER_0_28_349
*1106 FILLER_0_28_358
*1107 FILLER_0_28_365
*1108 FILLER_0_28_369
*1109 FILLER_0_28_374
*1110 FILLER_0_28_378
*1111 FILLER_0_28_390
*1112 FILLER_0_28_398
*1113 FILLER_0_28_402
*1114 FILLER_0_28_46
*1115 FILLER_0_28_50
*1116 FILLER_0_28_56
*1117 FILLER_0_28_62
*1118 FILLER_0_28_74
*1119 FILLER_0_28_82
*1120 FILLER_0_28_85
*1121 FILLER_0_28_97
*1122 FILLER_0_29_113
*1123 FILLER_0_29_125
*1124 FILLER_0_29_137
*1125 FILLER_0_29_149
*1126 FILLER_0_29_15
*1127 FILLER_0_29_161
*1128 FILLER_0_29_167
*1129 FILLER_0_29_169
*1130 FILLER_0_29_181
*1131 FILLER_0_29_193
*1132 FILLER_0_29_205
*1133 FILLER_0_29_217
*1134 FILLER_0_29_223
*1135 FILLER_0_29_225
*1136 FILLER_0_29_237
*1137 FILLER_0_29_249
*1138 FILLER_0_29_261
*1139 FILLER_0_29_269
*1140 FILLER_0_29_27
*1141 FILLER_0_29_277
*1142 FILLER_0_29_286
*1143 FILLER_0_29_298
*1144 FILLER_0_29_3
*1145 FILLER_0_29_310
*1146 FILLER_0_29_322
*1147 FILLER_0_29_334
*1148 FILLER_0_29_337
*1149 FILLER_0_29_349
*1150 FILLER_0_29_357
*1151 FILLER_0_29_362
*1152 FILLER_0_29_381
*1153 FILLER_0_29_389
*1154 FILLER_0_29_39
*1155 FILLER_0_29_393
*1156 FILLER_0_29_405
*1157 FILLER_0_29_51
*1158 FILLER_0_29_55
*1159 FILLER_0_29_57
*1160 FILLER_0_29_69
*1161 FILLER_0_29_81
*1162 FILLER_0_29_89
*1163 FILLER_0_2_109
*1164 FILLER_0_2_121
*1165 FILLER_0_2_133
*1166 FILLER_0_2_139
*1167 FILLER_0_2_141
*1168 FILLER_0_2_15
*1169 FILLER_0_2_153
*1170 FILLER_0_2_165
*1171 FILLER_0_2_177
*1172 FILLER_0_2_189
*1173 FILLER_0_2_195
*1174 FILLER_0_2_197
*1175 FILLER_0_2_209
*1176 FILLER_0_2_221
*1177 FILLER_0_2_233
*1178 FILLER_0_2_245
*1179 FILLER_0_2_251
*1180 FILLER_0_2_253
*1181 FILLER_0_2_265
*1182 FILLER_0_2_27
*1183 FILLER_0_2_277
*1184 FILLER_0_2_289
*1185 FILLER_0_2_29
*1186 FILLER_0_2_3
*1187 FILLER_0_2_301
*1188 FILLER_0_2_307
*1189 FILLER_0_2_309
*1190 FILLER_0_2_321
*1191 FILLER_0_2_333
*1192 FILLER_0_2_345
*1193 FILLER_0_2_357
*1194 FILLER_0_2_363
*1195 FILLER_0_2_365
*1196 FILLER_0_2_377
*1197 FILLER_0_2_389
*1198 FILLER_0_2_401
*1199 FILLER_0_2_41
*1200 FILLER_0_2_53
*1201 FILLER_0_2_65
*1202 FILLER_0_2_74
*1203 FILLER_0_2_82
*1204 FILLER_0_2_85
*1205 FILLER_0_2_97
*1206 FILLER_0_30_120
*1207 FILLER_0_30_132
*1208 FILLER_0_30_141
*1209 FILLER_0_30_15
*1210 FILLER_0_30_153
*1211 FILLER_0_30_159
*1212 FILLER_0_30_164
*1213 FILLER_0_30_172
*1214 FILLER_0_30_176
*1215 FILLER_0_30_186
*1216 FILLER_0_30_194
*1217 FILLER_0_30_197
*1218 FILLER_0_30_209
*1219 FILLER_0_30_221
*1220 FILLER_0_30_233
*1221 FILLER_0_30_239
*1222 FILLER_0_30_251
*1223 FILLER_0_30_253
*1224 FILLER_0_30_265
*1225 FILLER_0_30_27
*1226 FILLER_0_30_277
*1227 FILLER_0_30_289
*1228 FILLER_0_30_29
*1229 FILLER_0_30_3
*1230 FILLER_0_30_301
*1231 FILLER_0_30_307
*1232 FILLER_0_30_309
*1233 FILLER_0_30_321
*1234 FILLER_0_30_333
*1235 FILLER_0_30_345
*1236 FILLER_0_30_357
*1237 FILLER_0_30_363
*1238 FILLER_0_30_365
*1239 FILLER_0_30_372
*1240 FILLER_0_30_384
*1241 FILLER_0_30_405
*1242 FILLER_0_30_41
*1243 FILLER_0_30_53
*1244 FILLER_0_30_65
*1245 FILLER_0_30_77
*1246 FILLER_0_30_83
*1247 FILLER_0_30_85
*1248 FILLER_0_30_93
*1249 FILLER_0_31_10
*1250 FILLER_0_31_105
*1251 FILLER_0_31_111
*1252 FILLER_0_31_113
*1253 FILLER_0_31_125
*1254 FILLER_0_31_137
*1255 FILLER_0_31_141
*1256 FILLER_0_31_144
*1257 FILLER_0_31_148
*1258 FILLER_0_31_156
*1259 FILLER_0_31_169
*1260 FILLER_0_31_181
*1261 FILLER_0_31_193
*1262 FILLER_0_31_205
*1263 FILLER_0_31_217
*1264 FILLER_0_31_22
*1265 FILLER_0_31_223
*1266 FILLER_0_31_225
*1267 FILLER_0_31_237
*1268 FILLER_0_31_249
*1269 FILLER_0_31_261
*1270 FILLER_0_31_273
*1271 FILLER_0_31_279
*1272 FILLER_0_31_281
*1273 FILLER_0_31_293
*1274 FILLER_0_31_3
*1275 FILLER_0_31_305
*1276 FILLER_0_31_325
*1277 FILLER_0_31_333
*1278 FILLER_0_31_337
*1279 FILLER_0_31_34
*1280 FILLER_0_31_349
*1281 FILLER_0_31_361
*1282 FILLER_0_31_373
*1283 FILLER_0_31_385
*1284 FILLER_0_31_391
*1285 FILLER_0_31_393
*1286 FILLER_0_31_405
*1287 FILLER_0_31_46
*1288 FILLER_0_31_54
*1289 FILLER_0_31_57
*1290 FILLER_0_31_69
*1291 FILLER_0_31_81
*1292 FILLER_0_31_93
*1293 FILLER_0_32_109
*1294 FILLER_0_32_125
*1295 FILLER_0_32_137
*1296 FILLER_0_32_141
*1297 FILLER_0_32_15
*1298 FILLER_0_32_153
*1299 FILLER_0_32_165
*1300 FILLER_0_32_177
*1301 FILLER_0_32_189
*1302 FILLER_0_32_195
*1303 FILLER_0_32_197
*1304 FILLER_0_32_201
*1305 FILLER_0_32_205
*1306 FILLER_0_32_217
*1307 FILLER_0_32_229
*1308 FILLER_0_32_235
*1309 FILLER_0_32_243
*1310 FILLER_0_32_251
*1311 FILLER_0_32_253
*1312 FILLER_0_32_265
*1313 FILLER_0_32_27
*1314 FILLER_0_32_277
*1315 FILLER_0_32_289
*1316 FILLER_0_32_29
*1317 FILLER_0_32_3
*1318 FILLER_0_32_301
*1319 FILLER_0_32_307
*1320 FILLER_0_32_309
*1321 FILLER_0_32_334
*1322 FILLER_0_32_346
*1323 FILLER_0_32_358
*1324 FILLER_0_32_365
*1325 FILLER_0_32_377
*1326 FILLER_0_32_389
*1327 FILLER_0_32_401
*1328 FILLER_0_32_41
*1329 FILLER_0_32_53
*1330 FILLER_0_32_65
*1331 FILLER_0_32_77
*1332 FILLER_0_32_83
*1333 FILLER_0_32_85
*1334 FILLER_0_32_97
*1335 FILLER_0_33_105
*1336 FILLER_0_33_111
*1337 FILLER_0_33_132
*1338 FILLER_0_33_144
*1339 FILLER_0_33_156
*1340 FILLER_0_33_169
*1341 FILLER_0_33_181
*1342 FILLER_0_33_193
*1343 FILLER_0_33_201
*1344 FILLER_0_33_21
*1345 FILLER_0_33_225
*1346 FILLER_0_33_237
*1347 FILLER_0_33_249
*1348 FILLER_0_33_261
*1349 FILLER_0_33_273
*1350 FILLER_0_33_279
*1351 FILLER_0_33_281
*1352 FILLER_0_33_293
*1353 FILLER_0_33_310
*1354 FILLER_0_33_322
*1355 FILLER_0_33_33
*1356 FILLER_0_33_334
*1357 FILLER_0_33_337
*1358 FILLER_0_33_349
*1359 FILLER_0_33_361
*1360 FILLER_0_33_373
*1361 FILLER_0_33_385
*1362 FILLER_0_33_391
*1363 FILLER_0_33_393
*1364 FILLER_0_33_405
*1365 FILLER_0_33_45
*1366 FILLER_0_33_53
*1367 FILLER_0_33_57
*1368 FILLER_0_33_69
*1369 FILLER_0_33_81
*1370 FILLER_0_33_9
*1371 FILLER_0_33_93
*1372 FILLER_0_34_109
*1373 FILLER_0_34_121
*1374 FILLER_0_34_133
*1375 FILLER_0_34_139
*1376 FILLER_0_34_141
*1377 FILLER_0_34_15
*1378 FILLER_0_34_153
*1379 FILLER_0_34_165
*1380 FILLER_0_34_177
*1381 FILLER_0_34_189
*1382 FILLER_0_34_195
*1383 FILLER_0_34_197
*1384 FILLER_0_34_209
*1385 FILLER_0_34_215
*1386 FILLER_0_34_219
*1387 FILLER_0_34_227
*1388 FILLER_0_34_239
*1389 FILLER_0_34_251
*1390 FILLER_0_34_253
*1391 FILLER_0_34_265
*1392 FILLER_0_34_27
*1393 FILLER_0_34_277
*1394 FILLER_0_34_283
*1395 FILLER_0_34_29
*1396 FILLER_0_34_295
*1397 FILLER_0_34_3
*1398 FILLER_0_34_307
*1399 FILLER_0_34_309
*1400 FILLER_0_34_321
*1401 FILLER_0_34_333
*1402 FILLER_0_34_345
*1403 FILLER_0_34_357
*1404 FILLER_0_34_363
*1405 FILLER_0_34_365
*1406 FILLER_0_34_377
*1407 FILLER_0_34_389
*1408 FILLER_0_34_401
*1409 FILLER_0_34_41
*1410 FILLER_0_34_53
*1411 FILLER_0_34_65
*1412 FILLER_0_34_77
*1413 FILLER_0_34_83
*1414 FILLER_0_34_85
*1415 FILLER_0_34_97
*1416 FILLER_0_35_105
*1417 FILLER_0_35_111
*1418 FILLER_0_35_113
*1419 FILLER_0_35_125
*1420 FILLER_0_35_137
*1421 FILLER_0_35_149
*1422 FILLER_0_35_15
*1423 FILLER_0_35_153
*1424 FILLER_0_35_165
*1425 FILLER_0_35_169
*1426 FILLER_0_35_181
*1427 FILLER_0_35_185
*1428 FILLER_0_35_197
*1429 FILLER_0_35_209
*1430 FILLER_0_35_221
*1431 FILLER_0_35_225
*1432 FILLER_0_35_237
*1433 FILLER_0_35_249
*1434 FILLER_0_35_261
*1435 FILLER_0_35_27
*1436 FILLER_0_35_273
*1437 FILLER_0_35_279
*1438 FILLER_0_35_281
*1439 FILLER_0_35_293
*1440 FILLER_0_35_3
*1441 FILLER_0_35_305
*1442 FILLER_0_35_317
*1443 FILLER_0_35_329
*1444 FILLER_0_35_335
*1445 FILLER_0_35_347
*1446 FILLER_0_35_359
*1447 FILLER_0_35_367
*1448 FILLER_0_35_387
*1449 FILLER_0_35_39
*1450 FILLER_0_35_391
*1451 FILLER_0_35_393
*1452 FILLER_0_35_405
*1453 FILLER_0_35_51
*1454 FILLER_0_35_55
*1455 FILLER_0_35_57
*1456 FILLER_0_35_69
*1457 FILLER_0_35_81
*1458 FILLER_0_35_93
*1459 FILLER_0_36_109
*1460 FILLER_0_36_121
*1461 FILLER_0_36_133
*1462 FILLER_0_36_139
*1463 FILLER_0_36_141
*1464 FILLER_0_36_15
*1465 FILLER_0_36_153
*1466 FILLER_0_36_165
*1467 FILLER_0_36_177
*1468 FILLER_0_36_189
*1469 FILLER_0_36_195
*1470 FILLER_0_36_197
*1471 FILLER_0_36_208
*1472 FILLER_0_36_220
*1473 FILLER_0_36_232
*1474 FILLER_0_36_244
*1475 FILLER_0_36_253
*1476 FILLER_0_36_265
*1477 FILLER_0_36_27
*1478 FILLER_0_36_277